/*--------------------------------*- C++ -*----------------------------------*\
  =========                 |
  \\      /  F ield         | OpenFOAM: The Open Source CFD Toolbox
   \\    /   O peration     | Website:  https://openfoam.org
    \\  /    A nd           | Version:  12
     \\/     M anipulation  |
\*---------------------------------------------------------------------------*/
FoamFile
{
    format      ascii;
    class       extendedFeatureEdgeMesh;
    location    "constant/extendedFeatureEdgeMesh";
    object      Volume.extendedFeatureEdgeMesh;
}
// * * * * * * * * * * * * * * * * * * * * * * * * * * * * * * * * * * * * * //

// points

6692
(
(1.6 1.2 0.85)
(1.1 1.2 0.85)
(1.6 1.2 0.87)
(1.1 1.2 0.87)
(1.6 0.6 0.85)
(1.6 0.6 0.87)
(1.1 0.6 0.85)
(1.1 0.6 0.87)
(1.6 0.621 0.1)
(1.58 0.621 0.1)
(1.6 0.621 0.85)
(1.58 0.621 0.85)
(1.6 0.601 0.1)
(1.6 0.601 0.85)
(1.58 0.601 0.1)
(1.58 0.601 0.85)
(1.6 1.201 0.1)
(1.58 1.201 0.1)
(1.6 1.201 0.85)
(1.58 1.201 0.85)
(1.6 1.181 0.1)
(1.6 1.181 0.85)
(1.58 1.181 0.1)
(1.58 1.181 0.85)
(1.25 1.075 0.5)
(0.9 1.075 0.5)
(1.25 1.075 0.52)
(0.9 1.075 0.52)
(1.25 0.725 0.5)
(1.25 0.725 0.52)
(0.9 0.725 0.5)
(0.9 0.725 0.52)
(1.02 0.601 0.1)
(1.02 0.621 0.1)
(1.02 1.201 0.1)
(1.02 1.181 0.1)
(1 1.181 0.1)
(1 0.621 0.1)
(1 0.601 0.1)
(1 1.201 0.1)
(0.81 1.001 0.855)
(0.81 1.021 0.855)
(0.83 1.001 0.855)
(1.005 1.001 0.5)
(1.005 1.001 0.48)
(0.83 1.021 0.855)
(1.005 1.021 0.5)
(1.005 1.021 0.48)
(0.83 0.776 0.855)
(0.81 0.776 0.855)
(1.005 0.776 0.5)
(1.005 0.776 0.48)
(1.005 0.796 0.48)
(0.83 0.796 0.855)
(1.005 0.796 0.5)
(0.81 0.796 0.855)
(1.58 0.621 0.345)
(1.58 0.621 0.325)
(1.02 0.621 0.345)
(1.02 0.621 0.325)
(1.58 0.601 0.345)
(1.02 0.601 0.345)
(1.58 0.601 0.325)
(1.02 0.601 0.325)
(1.58 1.201 0.345)
(1.58 1.201 0.325)
(1.02 1.201 0.345)
(1.02 1.201 0.325)
(1.58 1.181 0.345)
(1.02 1.181 0.345)
(1.58 1.181 0.325)
(1.02 1.181 0.325)
(1.6 2.7 0.85)
(1.1 2.7 0.85)
(1.6 2.7 0.87)
(1.1 2.7 0.87)
(1.6 2.1 0.85)
(1.6 2.1 0.87)
(1.1 2.1 0.85)
(1.1 2.1 0.87)
(1.6 2.121 0.1)
(1.58 2.121 0.1)
(1.6 2.121 0.85)
(1.58 2.121 0.85)
(1.6 2.101 0.1)
(1.6 2.101 0.85)
(1.58 2.101 0.1)
(1.58 2.101 0.85)
(1.6 2.701 0.1)
(1.58 2.701 0.1)
(1.6 2.701 0.85)
(1.58 2.701 0.85)
(1.6 2.681 0.1)
(1.6 2.681 0.85)
(1.58 2.681 0.1)
(1.58 2.681 0.85)
(1.25 2.575 0.5)
(0.9 2.575 0.5)
(1.25 2.575 0.52)
(0.9 2.575 0.52)
(1.25 2.225 0.5)
(1.25 2.225 0.52)
(0.9 2.225 0.5)
(0.9 2.225 0.52)
(1.02 2.101 0.1)
(1.02 2.121 0.1)
(1.02 2.701 0.1)
(1.02 2.681 0.1)
(1 2.681 0.1)
(1 2.121 0.1)
(1 2.101 0.1)
(1 2.701 0.1)
(0.81 2.501 0.855)
(0.81 2.521 0.855)
(0.83 2.501 0.855)
(1.005 2.501 0.5)
(1.005 2.501 0.48)
(0.83 2.521 0.855)
(1.005 2.521 0.5)
(1.005 2.521 0.48)
(0.83 2.276 0.855)
(0.81 2.276 0.855)
(1.005 2.276 0.5)
(1.005 2.276 0.48)
(1.005 2.296 0.48)
(0.83 2.296 0.855)
(1.005 2.296 0.5)
(0.81 2.296 0.855)
(1.58 2.121 0.345)
(1.58 2.121 0.325)
(1.02 2.121 0.345)
(1.02 2.121 0.325)
(1.58 2.101 0.345)
(1.02 2.101 0.345)
(1.58 2.101 0.325)
(1.02 2.101 0.325)
(1.58 2.701 0.345)
(1.58 2.701 0.325)
(1.02 2.701 0.345)
(1.02 2.701 0.325)
(1.58 2.681 0.345)
(1.02 2.681 0.345)
(1.58 2.681 0.325)
(1.02 2.681 0.325)
(1.6 4.2 0.85)
(1.1 4.2 0.85)
(1.6 4.2 0.87)
(1.1 4.2 0.87)
(1.6 3.6 0.85)
(1.6 3.6 0.87)
(1.1 3.6 0.85)
(1.1 3.6 0.87)
(1.6 3.621 0.1)
(1.58 3.621 0.1)
(1.6 3.621 0.85)
(1.58 3.621 0.85)
(1.6 3.601 0.1)
(1.6 3.601 0.85)
(1.58 3.601 0.1)
(1.58 3.601 0.85)
(1.6 4.201 0.1)
(1.58 4.201 0.1)
(1.6 4.201 0.85)
(1.58 4.201 0.85)
(1.6 4.181 0.1)
(1.6 4.181 0.85)
(1.58 4.181 0.1)
(1.58 4.181 0.85)
(1.25 4.075 0.5)
(0.9 4.075 0.5)
(1.25 4.075 0.52)
(0.9 4.075 0.52)
(1.25 3.725 0.5)
(1.25 3.725 0.52)
(0.9 3.725 0.5)
(0.9 3.725 0.52)
(1.02 3.601 0.1)
(1.02 3.621 0.1)
(1.02 4.201 0.1)
(1.02 4.181 0.1)
(1 4.181 0.1)
(1 3.621 0.1)
(1 3.601 0.1)
(1 4.201 0.1)
(0.81 4.001 0.855)
(0.81 4.021 0.855)
(0.83 4.001 0.855)
(1.005 4.001 0.5)
(1.005 4.001 0.48)
(0.83 4.021 0.855)
(1.005 4.021 0.5)
(1.005 4.021 0.48)
(0.83 3.776 0.855)
(0.81 3.776 0.855)
(1.005 3.776 0.5)
(1.005 3.776 0.48)
(1.005 3.796 0.48)
(0.83 3.796 0.855)
(1.005 3.796 0.5)
(0.81 3.796 0.855)
(1.58 3.621 0.345)
(1.58 3.621 0.325)
(1.02 3.621 0.345)
(1.02 3.621 0.325)
(1.58 3.601 0.345)
(1.02 3.601 0.345)
(1.58 3.601 0.325)
(1.02 3.601 0.325)
(1.58 4.201 0.345)
(1.58 4.201 0.325)
(1.02 4.201 0.345)
(1.02 4.201 0.325)
(1.58 4.181 0.345)
(1.02 4.181 0.345)
(1.58 4.181 0.325)
(1.02 4.181 0.325)
(1.6 5.7 0.85)
(1.1 5.7 0.85)
(1.6 5.7 0.87)
(1.1 5.7 0.87)
(1.6 5.1 0.85)
(1.6 5.1 0.87)
(1.1 5.1 0.85)
(1.1 5.1 0.87)
(1.6 5.121 0.1)
(1.58 5.121 0.1)
(1.6 5.121 0.85)
(1.58 5.121 0.85)
(1.6 5.101 0.1)
(1.6 5.101 0.85)
(1.58 5.101 0.1)
(1.58 5.101 0.85)
(1.6 5.701 0.1)
(1.58 5.701 0.1)
(1.6 5.701 0.85)
(1.58 5.701 0.85)
(1.6 5.681 0.1)
(1.6 5.681 0.85)
(1.58 5.681 0.1)
(1.58 5.681 0.85)
(1.25 5.575 0.5)
(0.9 5.575 0.5)
(1.25 5.575 0.52)
(0.9 5.575 0.52)
(1.25 5.225 0.5)
(1.25 5.225 0.52)
(0.9 5.225 0.5)
(0.9 5.225 0.52)
(1.02 5.101 0.1)
(1.02 5.121 0.1)
(1.02 5.701 0.1)
(1.02 5.681 0.1)
(1 5.681 0.1)
(1 5.121 0.1)
(1 5.101 0.1)
(1 5.701 0.1)
(0.81 5.501 0.855)
(0.81 5.521 0.855)
(0.83 5.501 0.855)
(1.005 5.501 0.5)
(1.005 5.501 0.48)
(0.83 5.521 0.855)
(1.005 5.521 0.5)
(1.005 5.521 0.48)
(0.83 5.276 0.855)
(0.81 5.276 0.855)
(1.005 5.276 0.5)
(1.005 5.276 0.48)
(1.005 5.296 0.48)
(0.83 5.296 0.855)
(1.005 5.296 0.5)
(0.81 5.296 0.855)
(1.58 5.121 0.345)
(1.58 5.121 0.325)
(1.02 5.121 0.345)
(1.02 5.121 0.325)
(1.58 5.101 0.345)
(1.02 5.101 0.345)
(1.58 5.101 0.325)
(1.02 5.101 0.325)
(1.58 5.701 0.345)
(1.58 5.701 0.325)
(1.02 5.701 0.345)
(1.02 5.701 0.325)
(1.58 5.681 0.345)
(1.02 5.681 0.345)
(1.58 5.681 0.325)
(1.02 5.681 0.325)
(1.6 7.2 0.85)
(1.1 7.2 0.85)
(1.6 7.2 0.87)
(1.1 7.2 0.87)
(1.6 6.6 0.85)
(1.6 6.6 0.87)
(1.1 6.6 0.85)
(1.1 6.6 0.87)
(1.6 6.621 0.1)
(1.58 6.621 0.1)
(1.6 6.621 0.85)
(1.58 6.621 0.85)
(1.6 6.601 0.1)
(1.6 6.601 0.85)
(1.58 6.601 0.1)
(1.58 6.601 0.85)
(1.6 7.201 0.1)
(1.58 7.201 0.1)
(1.6 7.201 0.85)
(1.58 7.201 0.85)
(1.6 7.181 0.1)
(1.6 7.181 0.85)
(1.58 7.181 0.1)
(1.58 7.181 0.85)
(1.25 7.075 0.5)
(0.9 7.075 0.5)
(1.25 7.075 0.52)
(0.9 7.075 0.52)
(1.25 6.725 0.5)
(1.25 6.725 0.52)
(0.9 6.725 0.5)
(0.9 6.725 0.52)
(1.02 6.601 0.1)
(1.02 6.621 0.1)
(1.02 7.201 0.1)
(1.02 7.181 0.1)
(1 7.181 0.1)
(1 6.621 0.1)
(1 6.601 0.1)
(1 7.201 0.1)
(0.81 7.001 0.855)
(0.81 7.021 0.855)
(0.83 7.001 0.855)
(1.005 7.001 0.5)
(1.005 7.001 0.48)
(0.83 7.021 0.855)
(1.005 7.021 0.5)
(1.005 7.021 0.48)
(0.83 6.776 0.855)
(0.81 6.776 0.855)
(1.005 6.776 0.5)
(1.005 6.776 0.48)
(1.005 6.796 0.48)
(0.83 6.796 0.855)
(1.005 6.796 0.5)
(0.81 6.796 0.855)
(1.58 6.621 0.345)
(1.58 6.621 0.325)
(1.02 6.621 0.345)
(1.02 6.621 0.325)
(1.58 6.601 0.345)
(1.02 6.601 0.345)
(1.58 6.601 0.325)
(1.02 6.601 0.325)
(1.58 7.201 0.345)
(1.58 7.201 0.325)
(1.02 7.201 0.345)
(1.02 7.201 0.325)
(1.58 7.181 0.345)
(1.02 7.181 0.345)
(1.58 7.181 0.325)
(1.02 7.181 0.325)
(2.6 1.2 0.85)
(2.1 1.2 0.85)
(2.6 1.2 0.87)
(2.1 1.2 0.87)
(2.6 0.6 0.85)
(2.6 0.6 0.87)
(2.1 0.6 0.85)
(2.1 0.6 0.87)
(2.6 0.621 0.1)
(2.58 0.621 0.1)
(2.6 0.621 0.85)
(2.58 0.621 0.85)
(2.6 0.601 0.1)
(2.6 0.601 0.85)
(2.58 0.601 0.1)
(2.58 0.601 0.85)
(2.6 1.201 0.1)
(2.58 1.201 0.1)
(2.6 1.201 0.85)
(2.58 1.201 0.85)
(2.6 1.181 0.1)
(2.6 1.181 0.85)
(2.58 1.181 0.1)
(2.58 1.181 0.85)
(2.25 1.075 0.5)
(1.9 1.075 0.5)
(2.25 1.075 0.52)
(1.9 1.075 0.52)
(2.25 0.725 0.5)
(2.25 0.725 0.52)
(1.9 0.725 0.5)
(1.9 0.725 0.52)
(2.02 0.601 0.1)
(2.02 0.621 0.1)
(2.02 1.201 0.1)
(2.02 1.181 0.1)
(2 1.181 0.1)
(2 0.621 0.1)
(2 0.601 0.1)
(2 1.201 0.1)
(1.81 1.001 0.855)
(1.81 1.021 0.855)
(1.83 1.001 0.855)
(2.005 1.001 0.5)
(2.005 1.001 0.48)
(1.83 1.021 0.855)
(2.005 1.021 0.5)
(2.005 1.021 0.48)
(1.83 0.776 0.855)
(1.81 0.776 0.855)
(2.005 0.776 0.5)
(2.005 0.776 0.48)
(2.005 0.796 0.48)
(1.83 0.796 0.855)
(2.005 0.796 0.5)
(1.81 0.796 0.855)
(2.58 0.621 0.345)
(2.58 0.621 0.325)
(2.02 0.621 0.345)
(2.02 0.621 0.325)
(2.58 0.601 0.345)
(2.02 0.601 0.345)
(2.58 0.601 0.325)
(2.02 0.601 0.325)
(2.58 1.201 0.345)
(2.58 1.201 0.325)
(2.02 1.201 0.345)
(2.02 1.201 0.325)
(2.58 1.181 0.345)
(2.02 1.181 0.345)
(2.58 1.181 0.325)
(2.02 1.181 0.325)
(2.6 7.2 0.85)
(2.1 7.2 0.85)
(2.6 7.2 0.87)
(2.1 7.2 0.87)
(2.6 6.6 0.85)
(2.6 6.6 0.87)
(2.1 6.6 0.85)
(2.1 6.6 0.87)
(2.6 6.621 0.1)
(2.58 6.621 0.1)
(2.6 6.621 0.85)
(2.58 6.621 0.85)
(2.6 6.601 0.1)
(2.6 6.601 0.85)
(2.58 6.601 0.1)
(2.58 6.601 0.85)
(2.6 7.201 0.1)
(2.58 7.201 0.1)
(2.6 7.201 0.85)
(2.58 7.201 0.85)
(2.6 7.181 0.1)
(2.6 7.181 0.85)
(2.58 7.181 0.1)
(2.58 7.181 0.85)
(2.25 7.075 0.5)
(1.9 7.075 0.5)
(2.25 7.075 0.52)
(1.9 7.075 0.52)
(2.25 6.725 0.5)
(2.25 6.725 0.52)
(1.9 6.725 0.5)
(1.9 6.725 0.52)
(2.02 6.601 0.1)
(2.02 6.621 0.1)
(2.02 7.201 0.1)
(2.02 7.181 0.1)
(2 7.181 0.1)
(2 6.621 0.1)
(2 6.601 0.1)
(2 7.201 0.1)
(1.81 7.001 0.855)
(1.81 7.021 0.855)
(1.83 7.001 0.855)
(2.005 7.001 0.5)
(2.005 7.001 0.48)
(1.83 7.021 0.855)
(2.005 7.021 0.5)
(2.005 7.021 0.48)
(1.83 6.776 0.855)
(1.81 6.776 0.855)
(2.005 6.776 0.5)
(2.005 6.776 0.48)
(2.005 6.796 0.48)
(1.83 6.796 0.855)
(2.005 6.796 0.5)
(1.81 6.796 0.855)
(2.58 6.621 0.345)
(2.58 6.621 0.325)
(2.02 6.621 0.345)
(2.02 6.621 0.325)
(2.58 6.601 0.345)
(2.02 6.601 0.345)
(2.58 6.601 0.325)
(2.02 6.601 0.325)
(2.58 7.201 0.345)
(2.58 7.201 0.325)
(2.02 7.201 0.345)
(2.02 7.201 0.325)
(2.58 7.181 0.345)
(2.02 7.181 0.345)
(2.58 7.181 0.325)
(2.02 7.181 0.325)
(2.6 2.7 0.85)
(2.1 2.7 0.85)
(2.6 2.7 0.87)
(2.1 2.7 0.87)
(2.6 2.1 0.85)
(2.6 2.1 0.87)
(2.1 2.1 0.85)
(2.1 2.1 0.87)
(2.6 2.121 0.1)
(2.58 2.121 0.1)
(2.6 2.121 0.85)
(2.58 2.121 0.85)
(2.6 2.101 0.1)
(2.6 2.101 0.85)
(2.58 2.101 0.1)
(2.58 2.101 0.85)
(2.6 2.701 0.1)
(2.58 2.701 0.1)
(2.6 2.701 0.85)
(2.58 2.701 0.85)
(2.6 2.681 0.1)
(2.6 2.681 0.85)
(2.58 2.681 0.1)
(2.58 2.681 0.85)
(2.25 2.575 0.5)
(1.9 2.575 0.5)
(2.25 2.575 0.52)
(1.9 2.575 0.52)
(2.25 2.225 0.5)
(2.25 2.225 0.52)
(1.9 2.225 0.5)
(1.9 2.225 0.52)
(2.02 2.101 0.1)
(2.02 2.121 0.1)
(2.02 2.701 0.1)
(2.02 2.681 0.1)
(2 2.681 0.1)
(2 2.121 0.1)
(2 2.101 0.1)
(2 2.701 0.1)
(1.81 2.501 0.855)
(1.81 2.521 0.855)
(1.83 2.501 0.855)
(2.005 2.501 0.5)
(2.005 2.501 0.48)
(1.83 2.521 0.855)
(2.005 2.521 0.5)
(2.005 2.521 0.48)
(1.83 2.276 0.855)
(1.81 2.276 0.855)
(2.005 2.276 0.5)
(2.005 2.276 0.48)
(2.005 2.296 0.48)
(1.83 2.296 0.855)
(2.005 2.296 0.5)
(1.81 2.296 0.855)
(2.58 2.121 0.345)
(2.58 2.121 0.325)
(2.02 2.121 0.345)
(2.02 2.121 0.325)
(2.58 2.101 0.345)
(2.02 2.101 0.345)
(2.58 2.101 0.325)
(2.02 2.101 0.325)
(2.58 2.701 0.345)
(2.58 2.701 0.325)
(2.02 2.701 0.345)
(2.02 2.701 0.325)
(2.58 2.681 0.345)
(2.02 2.681 0.345)
(2.58 2.681 0.325)
(2.02 2.681 0.325)
(2.6 5.7 0.85)
(2.1 5.7 0.85)
(2.6 5.7 0.87)
(2.1 5.7 0.87)
(2.6 5.1 0.85)
(2.6 5.1 0.87)
(2.1 5.1 0.85)
(2.1 5.1 0.87)
(2.6 5.121 0.1)
(2.58 5.121 0.1)
(2.6 5.121 0.85)
(2.58 5.121 0.85)
(2.6 5.101 0.1)
(2.6 5.101 0.85)
(2.58 5.101 0.1)
(2.58 5.101 0.85)
(2.6 5.701 0.1)
(2.58 5.701 0.1)
(2.6 5.701 0.85)
(2.58 5.701 0.85)
(2.6 5.681 0.1)
(2.6 5.681 0.85)
(2.58 5.681 0.1)
(2.58 5.681 0.85)
(2.25 5.575 0.5)
(1.9 5.575 0.5)
(2.25 5.575 0.52)
(1.9 5.575 0.52)
(2.25 5.225 0.5)
(2.25 5.225 0.52)
(1.9 5.225 0.5)
(1.9 5.225 0.52)
(2.02 5.101 0.1)
(2.02 5.121 0.1)
(2.02 5.701 0.1)
(2.02 5.681 0.1)
(2 5.681 0.1)
(2 5.121 0.1)
(2 5.101 0.1)
(2 5.701 0.1)
(1.81 5.501 0.855)
(1.81 5.521 0.855)
(1.83 5.501 0.855)
(2.005 5.501 0.5)
(2.005 5.501 0.48)
(1.83 5.521 0.855)
(2.005 5.521 0.5)
(2.005 5.521 0.48)
(1.83 5.276 0.855)
(1.81 5.276 0.855)
(2.005 5.276 0.5)
(2.005 5.276 0.48)
(2.005 5.296 0.48)
(1.83 5.296 0.855)
(2.005 5.296 0.5)
(1.81 5.296 0.855)
(2.58 5.121 0.345)
(2.58 5.121 0.325)
(2.02 5.121 0.345)
(2.02 5.121 0.325)
(2.58 5.101 0.345)
(2.02 5.101 0.345)
(2.58 5.101 0.325)
(2.02 5.101 0.325)
(2.58 5.701 0.345)
(2.58 5.701 0.325)
(2.02 5.701 0.345)
(2.02 5.701 0.325)
(2.58 5.681 0.345)
(2.02 5.681 0.345)
(2.58 5.681 0.325)
(2.02 5.681 0.325)
(2.6 4.2 0.85)
(2.1 4.2 0.85)
(2.6 4.2 0.87)
(2.1 4.2 0.87)
(2.6 3.6 0.85)
(2.6 3.6 0.87)
(2.1 3.6 0.85)
(2.1 3.6 0.87)
(2.6 3.621 0.1)
(2.58 3.621 0.1)
(2.6 3.621 0.85)
(2.58 3.621 0.85)
(2.6 3.601 0.1)
(2.6 3.601 0.85)
(2.58 3.601 0.1)
(2.58 3.601 0.85)
(2.6 4.201 0.1)
(2.58 4.201 0.1)
(2.6 4.201 0.85)
(2.58 4.201 0.85)
(2.6 4.181 0.1)
(2.6 4.181 0.85)
(2.58 4.181 0.1)
(2.58 4.181 0.85)
(2.25 4.075 0.5)
(1.9 4.075 0.5)
(2.25 4.075 0.52)
(1.9 4.075 0.52)
(2.25 3.725 0.5)
(2.25 3.725 0.52)
(1.9 3.725 0.5)
(1.9 3.725 0.52)
(2.02 3.601 0.1)
(2.02 3.621 0.1)
(2.02 4.201 0.1)
(2.02 4.181 0.1)
(2 4.181 0.1)
(2 3.621 0.1)
(2 3.601 0.1)
(2 4.201 0.1)
(1.81 4.001 0.855)
(1.81 4.021 0.855)
(1.83 4.001 0.855)
(2.005 4.001 0.5)
(2.005 4.001 0.48)
(1.83 4.021 0.855)
(2.005 4.021 0.5)
(2.005 4.021 0.48)
(1.83 3.776 0.855)
(1.81 3.776 0.855)
(2.005 3.776 0.5)
(2.005 3.776 0.48)
(2.005 3.796 0.48)
(1.83 3.796 0.855)
(2.005 3.796 0.5)
(1.81 3.796 0.855)
(2.58 3.621 0.345)
(2.58 3.621 0.325)
(2.02 3.621 0.345)
(2.02 3.621 0.325)
(2.58 3.601 0.345)
(2.02 3.601 0.345)
(2.58 3.601 0.325)
(2.02 3.601 0.325)
(2.58 4.201 0.345)
(2.58 4.201 0.325)
(2.02 4.201 0.345)
(2.02 4.201 0.325)
(2.58 4.181 0.345)
(2.02 4.181 0.345)
(2.58 4.181 0.325)
(2.02 4.181 0.325)
(3.6 4.2 0.85)
(3.1 4.2 0.85)
(3.6 4.2 0.87)
(3.1 4.2 0.87)
(3.6 3.6 0.85)
(3.6 3.6 0.87)
(3.1 3.6 0.85)
(3.1 3.6 0.87)
(3.6 3.621 0.1)
(3.58 3.621 0.1)
(3.6 3.621 0.85)
(3.58 3.621 0.85)
(3.6 3.601 0.1)
(3.6 3.601 0.85)
(3.58 3.601 0.1)
(3.58 3.601 0.85)
(3.6 4.201 0.1)
(3.58 4.201 0.1)
(3.6 4.201 0.85)
(3.58 4.201 0.85)
(3.6 4.181 0.1)
(3.6 4.181 0.85)
(3.58 4.181 0.1)
(3.58 4.181 0.85)
(3.25 4.075 0.5)
(2.9 4.075 0.5)
(3.25 4.075 0.52)
(2.9 4.075 0.52)
(3.25 3.725 0.5)
(3.25 3.725 0.52)
(2.9 3.725 0.5)
(2.9 3.725 0.52)
(3.02 3.601 0.1)
(3.02 3.621 0.1)
(3.02 4.201 0.1)
(3.02 4.181 0.1)
(3 4.181 0.1)
(3 3.621 0.1)
(3 3.601 0.1)
(3 4.201 0.1)
(2.81 4.001 0.855)
(2.81 4.021 0.855)
(2.83 4.001 0.855)
(3.005 4.001 0.5)
(3.005 4.001 0.48)
(2.83 4.021 0.855)
(3.005 4.021 0.5)
(3.005 4.021 0.48)
(2.83 3.776 0.855)
(2.81 3.776 0.855)
(3.005 3.776 0.5)
(3.005 3.776 0.48)
(3.005 3.796 0.48)
(2.83 3.796 0.855)
(3.005 3.796 0.5)
(2.81 3.796 0.855)
(3.58 3.621 0.345)
(3.58 3.621 0.325)
(3.02 3.621 0.345)
(3.02 3.621 0.325)
(3.58 3.601 0.345)
(3.02 3.601 0.345)
(3.58 3.601 0.325)
(3.02 3.601 0.325)
(3.58 4.201 0.345)
(3.58 4.201 0.325)
(3.02 4.201 0.345)
(3.02 4.201 0.325)
(3.58 4.181 0.345)
(3.02 4.181 0.345)
(3.58 4.181 0.325)
(3.02 4.181 0.325)
(3.6 7.2 0.85)
(3.1 7.2 0.85)
(3.6 7.2 0.87)
(3.1 7.2 0.87)
(3.6 6.6 0.85)
(3.6 6.6 0.87)
(3.1 6.6 0.85)
(3.1 6.6 0.87)
(3.6 6.621 0.1)
(3.58 6.621 0.1)
(3.6 6.621 0.85)
(3.58 6.621 0.85)
(3.6 6.601 0.1)
(3.6 6.601 0.85)
(3.58 6.601 0.1)
(3.58 6.601 0.85)
(3.6 7.201 0.1)
(3.58 7.201 0.1)
(3.6 7.201 0.85)
(3.58 7.201 0.85)
(3.6 7.181 0.1)
(3.6 7.181 0.85)
(3.58 7.181 0.1)
(3.58 7.181 0.85)
(3.25 7.075 0.5)
(2.9 7.075 0.5)
(3.25 7.075 0.52)
(2.9 7.075 0.52)
(3.25 6.725 0.5)
(3.25 6.725 0.52)
(2.9 6.725 0.5)
(2.9 6.725 0.52)
(3.02 6.601 0.1)
(3.02 6.621 0.1)
(3.02 7.201 0.1)
(3.02 7.181 0.1)
(3 7.181 0.1)
(3 6.621 0.1)
(3 6.601 0.1)
(3 7.201 0.1)
(2.81 7.001 0.855)
(2.81 7.021 0.855)
(2.83 7.001 0.855)
(3.005 7.001 0.5)
(3.005 7.001 0.48)
(2.83 7.021 0.855)
(3.005 7.021 0.5)
(3.005 7.021 0.48)
(2.83 6.776 0.855)
(2.81 6.776 0.855)
(3.005 6.776 0.5)
(3.005 6.776 0.48)
(3.005 6.796 0.48)
(2.83 6.796 0.855)
(3.005 6.796 0.5)
(2.81 6.796 0.855)
(3.58 6.621 0.345)
(3.58 6.621 0.325)
(3.02 6.621 0.345)
(3.02 6.621 0.325)
(3.58 6.601 0.345)
(3.02 6.601 0.345)
(3.58 6.601 0.325)
(3.02 6.601 0.325)
(3.58 7.201 0.345)
(3.58 7.201 0.325)
(3.02 7.201 0.345)
(3.02 7.201 0.325)
(3.58 7.181 0.345)
(3.02 7.181 0.345)
(3.58 7.181 0.325)
(3.02 7.181 0.325)
(3.6 2.7 0.85)
(3.1 2.7 0.85)
(3.6 2.7 0.87)
(3.1 2.7 0.87)
(3.6 2.1 0.85)
(3.6 2.1 0.87)
(3.1 2.1 0.85)
(3.1 2.1 0.87)
(3.6 2.121 0.1)
(3.58 2.121 0.1)
(3.6 2.121 0.85)
(3.58 2.121 0.85)
(3.6 2.101 0.1)
(3.6 2.101 0.85)
(3.58 2.101 0.1)
(3.58 2.101 0.85)
(3.6 2.701 0.1)
(3.58 2.701 0.1)
(3.6 2.701 0.85)
(3.58 2.701 0.85)
(3.6 2.681 0.1)
(3.6 2.681 0.85)
(3.58 2.681 0.1)
(3.58 2.681 0.85)
(3.25 2.575 0.5)
(2.9 2.575 0.5)
(3.25 2.575 0.52)
(2.9 2.575 0.52)
(3.25 2.225 0.5)
(3.25 2.225 0.52)
(2.9 2.225 0.5)
(2.9 2.225 0.52)
(3.02 2.101 0.1)
(3.02 2.121 0.1)
(3.02 2.701 0.1)
(3.02 2.681 0.1)
(3 2.681 0.1)
(3 2.121 0.1)
(3 2.101 0.1)
(3 2.701 0.1)
(2.81 2.501 0.855)
(2.81 2.521 0.855)
(2.83 2.501 0.855)
(3.005 2.501 0.5)
(3.005 2.501 0.48)
(2.83 2.521 0.855)
(3.005 2.521 0.5)
(3.005 2.521 0.48)
(2.83 2.276 0.855)
(2.81 2.276 0.855)
(3.005 2.276 0.5)
(3.005 2.276 0.48)
(3.005 2.296 0.48)
(2.83 2.296 0.855)
(3.005 2.296 0.5)
(2.81 2.296 0.855)
(3.58 2.121 0.345)
(3.58 2.121 0.325)
(3.02 2.121 0.345)
(3.02 2.121 0.325)
(3.58 2.101 0.345)
(3.02 2.101 0.345)
(3.58 2.101 0.325)
(3.02 2.101 0.325)
(3.58 2.701 0.345)
(3.58 2.701 0.325)
(3.02 2.701 0.345)
(3.02 2.701 0.325)
(3.58 2.681 0.345)
(3.02 2.681 0.345)
(3.58 2.681 0.325)
(3.02 2.681 0.325)
(3.6 1.2 0.85)
(3.1 1.2 0.85)
(3.6 1.2 0.87)
(3.1 1.2 0.87)
(3.6 0.6 0.85)
(3.6 0.6 0.87)
(3.1 0.6 0.85)
(3.1 0.6 0.87)
(3.6 0.621 0.1)
(3.58 0.621 0.1)
(3.6 0.621 0.85)
(3.58 0.621 0.85)
(3.6 0.601 0.1)
(3.6 0.601 0.85)
(3.58 0.601 0.1)
(3.58 0.601 0.85)
(3.6 1.201 0.1)
(3.58 1.201 0.1)
(3.6 1.201 0.85)
(3.58 1.201 0.85)
(3.6 1.181 0.1)
(3.6 1.181 0.85)
(3.58 1.181 0.1)
(3.58 1.181 0.85)
(3.25 1.075 0.5)
(2.9 1.075 0.5)
(3.25 1.075 0.52)
(2.9 1.075 0.52)
(3.25 0.725 0.5)
(3.25 0.725 0.52)
(2.9 0.725 0.5)
(2.9 0.725 0.52)
(3.02 0.601 0.1)
(3.02 0.621 0.1)
(3.02 1.201 0.1)
(3.02 1.181 0.1)
(3 1.181 0.1)
(3 0.621 0.1)
(3 0.601 0.1)
(3 1.201 0.1)
(2.81 1.001 0.855)
(2.81 1.021 0.855)
(2.83 1.001 0.855)
(3.005 1.001 0.5)
(3.005 1.001 0.48)
(2.83 1.021 0.855)
(3.005 1.021 0.5)
(3.005 1.021 0.48)
(2.83 0.776 0.855)
(2.81 0.776 0.855)
(3.005 0.776 0.5)
(3.005 0.776 0.48)
(3.005 0.796 0.48)
(2.83 0.796 0.855)
(3.005 0.796 0.5)
(2.81 0.796 0.855)
(3.58 0.621 0.345)
(3.58 0.621 0.325)
(3.02 0.621 0.345)
(3.02 0.621 0.325)
(3.58 0.601 0.345)
(3.02 0.601 0.345)
(3.58 0.601 0.325)
(3.02 0.601 0.325)
(3.58 1.201 0.345)
(3.58 1.201 0.325)
(3.02 1.201 0.345)
(3.02 1.201 0.325)
(3.58 1.181 0.345)
(3.02 1.181 0.345)
(3.58 1.181 0.325)
(3.02 1.181 0.325)
(3.6 5.7 0.85)
(3.1 5.7 0.85)
(3.6 5.7 0.87)
(3.1 5.7 0.87)
(3.6 5.1 0.85)
(3.6 5.1 0.87)
(3.1 5.1 0.85)
(3.1 5.1 0.87)
(3.6 5.121 0.1)
(3.58 5.121 0.1)
(3.6 5.121 0.85)
(3.58 5.121 0.85)
(3.6 5.101 0.1)
(3.6 5.101 0.85)
(3.58 5.101 0.1)
(3.58 5.101 0.85)
(3.6 5.701 0.1)
(3.58 5.701 0.1)
(3.6 5.701 0.85)
(3.58 5.701 0.85)
(3.6 5.681 0.1)
(3.6 5.681 0.85)
(3.58 5.681 0.1)
(3.58 5.681 0.85)
(3.25 5.575 0.5)
(2.9 5.575 0.5)
(3.25 5.575 0.52)
(2.9 5.575 0.52)
(3.25 5.225 0.5)
(3.25 5.225 0.52)
(2.9 5.225 0.5)
(2.9 5.225 0.52)
(3.02 5.101 0.1)
(3.02 5.121 0.1)
(3.02 5.701 0.1)
(3.02 5.681 0.1)
(3 5.681 0.1)
(3 5.121 0.1)
(3 5.101 0.1)
(3 5.701 0.1)
(2.81 5.501 0.855)
(2.81 5.521 0.855)
(2.83 5.501 0.855)
(3.005 5.501 0.5)
(3.005 5.501 0.48)
(2.83 5.521 0.855)
(3.005 5.521 0.5)
(3.005 5.521 0.48)
(2.83 5.276 0.855)
(2.81 5.276 0.855)
(3.005 5.276 0.5)
(3.005 5.276 0.48)
(3.005 5.296 0.48)
(2.83 5.296 0.855)
(3.005 5.296 0.5)
(2.81 5.296 0.855)
(3.58 5.121 0.345)
(3.58 5.121 0.325)
(3.02 5.121 0.345)
(3.02 5.121 0.325)
(3.58 5.101 0.345)
(3.02 5.101 0.345)
(3.58 5.101 0.325)
(3.02 5.101 0.325)
(3.58 5.701 0.345)
(3.58 5.701 0.325)
(3.02 5.701 0.345)
(3.02 5.701 0.325)
(3.58 5.681 0.345)
(3.02 5.681 0.345)
(3.58 5.681 0.325)
(3.02 5.681 0.325)
(4.6 4.2 0.85)
(4.1 4.2 0.85)
(4.6 4.2 0.87)
(4.1 4.2 0.87)
(4.6 3.6 0.85)
(4.6 3.6 0.87)
(4.1 3.6 0.85)
(4.1 3.6 0.87)
(4.6 3.621 0.1)
(4.58 3.621 0.1)
(4.6 3.621 0.85)
(4.58 3.621 0.85)
(4.6 3.601 0.1)
(4.6 3.601 0.85)
(4.58 3.601 0.1)
(4.58 3.601 0.85)
(4.6 4.201 0.1)
(4.58 4.201 0.1)
(4.6 4.201 0.85)
(4.58 4.201 0.85)
(4.6 4.181 0.1)
(4.6 4.181 0.85)
(4.58 4.181 0.1)
(4.58 4.181 0.85)
(4.25 4.075 0.5)
(3.9 4.075 0.5)
(4.25 4.075 0.52)
(3.9 4.075 0.52)
(4.25 3.725 0.5)
(4.25 3.725 0.52)
(3.9 3.725 0.5)
(3.9 3.725 0.52)
(4.02 3.601 0.1)
(4.02 3.621 0.1)
(4.02 4.201 0.1)
(4.02 4.181 0.1)
(4 4.181 0.1)
(4 3.621 0.1)
(4 3.601 0.1)
(4 4.201 0.1)
(3.81 4.001 0.855)
(3.81 4.021 0.855)
(3.83 4.001 0.855)
(4.005 4.001 0.5)
(4.005 4.001 0.48)
(3.83 4.021 0.855)
(4.005 4.021 0.5)
(4.005 4.021 0.48)
(3.83 3.776 0.855)
(3.81 3.776 0.855)
(4.005 3.776 0.5)
(4.005 3.776 0.48)
(4.005 3.796 0.48)
(3.83 3.796 0.855)
(4.005 3.796 0.5)
(3.81 3.796 0.855)
(4.58 3.621 0.345)
(4.58 3.621 0.325)
(4.02 3.621 0.345)
(4.02 3.621 0.325)
(4.58 3.601 0.345)
(4.02 3.601 0.345)
(4.58 3.601 0.325)
(4.02 3.601 0.325)
(4.58 4.201 0.345)
(4.58 4.201 0.325)
(4.02 4.201 0.345)
(4.02 4.201 0.325)
(4.58 4.181 0.345)
(4.02 4.181 0.345)
(4.58 4.181 0.325)
(4.02 4.181 0.325)
(4.6 7.2 0.85)
(4.1 7.2 0.85)
(4.6 7.2 0.87)
(4.1 7.2 0.87)
(4.6 6.6 0.85)
(4.6 6.6 0.87)
(4.1 6.6 0.85)
(4.1 6.6 0.87)
(4.6 6.621 0.1)
(4.58 6.621 0.1)
(4.6 6.621 0.85)
(4.58 6.621 0.85)
(4.6 6.601 0.1)
(4.6 6.601 0.85)
(4.58 6.601 0.1)
(4.58 6.601 0.85)
(4.6 7.201 0.1)
(4.58 7.201 0.1)
(4.6 7.201 0.85)
(4.58 7.201 0.85)
(4.6 7.181 0.1)
(4.6 7.181 0.85)
(4.58 7.181 0.1)
(4.58 7.181 0.85)
(4.25 7.075 0.5)
(3.9 7.075 0.5)
(4.25 7.075 0.52)
(3.9 7.075 0.52)
(4.25 6.725 0.5)
(4.25 6.725 0.52)
(3.9 6.725 0.5)
(3.9 6.725 0.52)
(4.02 6.601 0.1)
(4.02 6.621 0.1)
(4.02 7.201 0.1)
(4.02 7.181 0.1)
(4 7.181 0.1)
(4 6.621 0.1)
(4 6.601 0.1)
(4 7.201 0.1)
(3.81 7.001 0.855)
(3.81 7.021 0.855)
(3.83 7.001 0.855)
(4.005 7.001 0.5)
(4.005 7.001 0.48)
(3.83 7.021 0.855)
(4.005 7.021 0.5)
(4.005 7.021 0.48)
(3.83 6.776 0.855)
(3.81 6.776 0.855)
(4.005 6.776 0.5)
(4.005 6.776 0.48)
(4.005 6.796 0.48)
(3.83 6.796 0.855)
(4.005 6.796 0.5)
(3.81 6.796 0.855)
(4.58 6.621 0.345)
(4.58 6.621 0.325)
(4.02 6.621 0.345)
(4.02 6.621 0.325)
(4.58 6.601 0.345)
(4.02 6.601 0.345)
(4.58 6.601 0.325)
(4.02 6.601 0.325)
(4.58 7.201 0.345)
(4.58 7.201 0.325)
(4.02 7.201 0.345)
(4.02 7.201 0.325)
(4.58 7.181 0.345)
(4.02 7.181 0.345)
(4.58 7.181 0.325)
(4.02 7.181 0.325)
(4.6 2.7 0.85)
(4.1 2.7 0.85)
(4.6 2.7 0.87)
(4.1 2.7 0.87)
(4.6 2.1 0.85)
(4.6 2.1 0.87)
(4.1 2.1 0.85)
(4.1 2.1 0.87)
(4.6 2.121 0.1)
(4.58 2.121 0.1)
(4.6 2.121 0.85)
(4.58 2.121 0.85)
(4.6 2.101 0.1)
(4.6 2.101 0.85)
(4.58 2.101 0.1)
(4.58 2.101 0.85)
(4.6 2.701 0.1)
(4.58 2.701 0.1)
(4.6 2.701 0.85)
(4.58 2.701 0.85)
(4.6 2.681 0.1)
(4.6 2.681 0.85)
(4.58 2.681 0.1)
(4.58 2.681 0.85)
(4.25 2.575 0.5)
(3.9 2.575 0.5)
(4.25 2.575 0.52)
(3.9 2.575 0.52)
(4.25 2.225 0.5)
(4.25 2.225 0.52)
(3.9 2.225 0.5)
(3.9 2.225 0.52)
(4.02 2.101 0.1)
(4.02 2.121 0.1)
(4.02 2.701 0.1)
(4.02 2.681 0.1)
(4 2.681 0.1)
(4 2.121 0.1)
(4 2.101 0.1)
(4 2.701 0.1)
(3.81 2.501 0.855)
(3.81 2.521 0.855)
(3.83 2.501 0.855)
(4.005 2.501 0.5)
(4.005 2.501 0.48)
(3.83 2.521 0.855)
(4.005 2.521 0.5)
(4.005 2.521 0.48)
(3.83 2.276 0.855)
(3.81 2.276 0.855)
(4.005 2.276 0.5)
(4.005 2.276 0.48)
(4.005 2.296 0.48)
(3.83 2.296 0.855)
(4.005 2.296 0.5)
(3.81 2.296 0.855)
(4.58 2.121 0.345)
(4.58 2.121 0.325)
(4.02 2.121 0.345)
(4.02 2.121 0.325)
(4.58 2.101 0.345)
(4.02 2.101 0.345)
(4.58 2.101 0.325)
(4.02 2.101 0.325)
(4.58 2.701 0.345)
(4.58 2.701 0.325)
(4.02 2.701 0.345)
(4.02 2.701 0.325)
(4.58 2.681 0.345)
(4.02 2.681 0.345)
(4.58 2.681 0.325)
(4.02 2.681 0.325)
(4.6 1.2 0.85)
(4.1 1.2 0.85)
(4.6 1.2 0.87)
(4.1 1.2 0.87)
(4.6 0.6 0.85)
(4.6 0.6 0.87)
(4.1 0.6 0.85)
(4.1 0.6 0.87)
(4.6 0.621 0.1)
(4.58 0.621 0.1)
(4.6 0.621 0.85)
(4.58 0.621 0.85)
(4.6 0.601 0.1)
(4.6 0.601 0.85)
(4.58 0.601 0.1)
(4.58 0.601 0.85)
(4.6 1.201 0.1)
(4.58 1.201 0.1)
(4.6 1.201 0.85)
(4.58 1.201 0.85)
(4.6 1.181 0.1)
(4.6 1.181 0.85)
(4.58 1.181 0.1)
(4.58 1.181 0.85)
(4.25 1.075 0.5)
(3.9 1.075 0.5)
(4.25 1.075 0.52)
(3.9 1.075 0.52)
(4.25 0.725 0.5)
(4.25 0.725 0.52)
(3.9 0.725 0.5)
(3.9 0.725 0.52)
(4.02 0.601 0.1)
(4.02 0.621 0.1)
(4.02 1.201 0.1)
(4.02 1.181 0.1)
(4 1.181 0.1)
(4 0.621 0.1)
(4 0.601 0.1)
(4 1.201 0.1)
(3.81 1.001 0.855)
(3.81 1.021 0.855)
(3.83 1.001 0.855)
(4.005 1.001 0.5)
(4.005 1.001 0.48)
(3.83 1.021 0.855)
(4.005 1.021 0.5)
(4.005 1.021 0.48)
(3.83 0.776 0.855)
(3.81 0.776 0.855)
(4.005 0.776 0.5)
(4.005 0.776 0.48)
(4.005 0.796 0.48)
(3.83 0.796 0.855)
(4.005 0.796 0.5)
(3.81 0.796 0.855)
(4.58 0.621 0.345)
(4.58 0.621 0.325)
(4.02 0.621 0.345)
(4.02 0.621 0.325)
(4.58 0.601 0.345)
(4.02 0.601 0.345)
(4.58 0.601 0.325)
(4.02 0.601 0.325)
(4.58 1.201 0.345)
(4.58 1.201 0.325)
(4.02 1.201 0.345)
(4.02 1.201 0.325)
(4.58 1.181 0.345)
(4.02 1.181 0.345)
(4.58 1.181 0.325)
(4.02 1.181 0.325)
(4.6 5.7 0.85)
(4.1 5.7 0.85)
(4.6 5.7 0.87)
(4.1 5.7 0.87)
(4.6 5.1 0.85)
(4.6 5.1 0.87)
(4.1 5.1 0.85)
(4.1 5.1 0.87)
(4.6 5.121 0.1)
(4.58 5.121 0.1)
(4.6 5.121 0.85)
(4.58 5.121 0.85)
(4.6 5.101 0.1)
(4.6 5.101 0.85)
(4.58 5.101 0.1)
(4.58 5.101 0.85)
(4.6 5.701 0.1)
(4.58 5.701 0.1)
(4.6 5.701 0.85)
(4.58 5.701 0.85)
(4.6 5.681 0.1)
(4.6 5.681 0.85)
(4.58 5.681 0.1)
(4.58 5.681 0.85)
(4.25 5.575 0.5)
(3.9 5.575 0.5)
(4.25 5.575 0.52)
(3.9 5.575 0.52)
(4.25 5.225 0.5)
(4.25 5.225 0.52)
(3.9 5.225 0.5)
(3.9 5.225 0.52)
(4.02 5.101 0.1)
(4.02 5.121 0.1)
(4.02 5.701 0.1)
(4.02 5.681 0.1)
(4 5.681 0.1)
(4 5.121 0.1)
(4 5.101 0.1)
(4 5.701 0.1)
(3.81 5.501 0.855)
(3.81 5.521 0.855)
(3.83 5.501 0.855)
(4.005 5.501 0.5)
(4.005 5.501 0.48)
(3.83 5.521 0.855)
(4.005 5.521 0.5)
(4.005 5.521 0.48)
(3.83 5.276 0.855)
(3.81 5.276 0.855)
(4.005 5.276 0.5)
(4.005 5.276 0.48)
(4.005 5.296 0.48)
(3.83 5.296 0.855)
(4.005 5.296 0.5)
(3.81 5.296 0.855)
(4.58 5.121 0.345)
(4.58 5.121 0.325)
(4.02 5.121 0.345)
(4.02 5.121 0.325)
(4.58 5.101 0.345)
(4.02 5.101 0.345)
(4.58 5.101 0.325)
(4.02 5.101 0.325)
(4.58 5.701 0.345)
(4.58 5.701 0.325)
(4.02 5.701 0.345)
(4.02 5.701 0.325)
(4.58 5.681 0.345)
(4.02 5.681 0.345)
(4.58 5.681 0.325)
(4.02 5.681 0.325)
(5.6 5.7 0.85)
(5.1 5.7 0.85)
(5.6 5.7 0.87)
(5.1 5.7 0.87)
(5.6 5.1 0.85)
(5.6 5.1 0.87)
(5.1 5.1 0.85)
(5.1 5.1 0.87)
(5.6 5.121 0.1)
(5.58 5.121 0.1)
(5.6 5.121 0.85)
(5.58 5.121 0.85)
(5.6 5.101 0.1)
(5.6 5.101 0.85)
(5.58 5.101 0.1)
(5.58 5.101 0.85)
(5.6 5.701 0.1)
(5.58 5.701 0.1)
(5.6 5.701 0.85)
(5.58 5.701 0.85)
(5.6 5.681 0.1)
(5.6 5.681 0.85)
(5.58 5.681 0.1)
(5.58 5.681 0.85)
(5.25 5.575 0.5)
(4.9 5.575 0.5)
(5.25 5.575 0.52)
(4.9 5.575 0.52)
(5.25 5.225 0.5)
(5.25 5.225 0.52)
(4.9 5.225 0.5)
(4.9 5.225 0.52)
(5.02 5.101 0.1)
(5.02 5.121 0.1)
(5.02 5.701 0.1)
(5.02 5.681 0.1)
(5 5.681 0.1)
(5 5.121 0.1)
(5 5.101 0.1)
(5 5.701 0.1)
(4.81 5.501 0.855)
(4.81 5.521 0.855)
(4.83 5.501 0.855)
(5.005 5.501 0.5)
(5.005 5.501 0.48)
(4.83 5.521 0.855)
(5.005 5.521 0.5)
(5.005 5.521 0.48)
(4.83 5.276 0.855)
(4.81 5.276 0.855)
(5.005 5.276 0.5)
(5.005 5.276 0.48)
(5.005 5.296 0.48)
(4.83 5.296 0.855)
(5.005 5.296 0.5)
(4.81 5.296 0.855)
(5.58 5.121 0.345)
(5.58 5.121 0.325)
(5.02 5.121 0.345)
(5.02 5.121 0.325)
(5.58 5.101 0.345)
(5.02 5.101 0.345)
(5.58 5.101 0.325)
(5.02 5.101 0.325)
(5.58 5.701 0.345)
(5.58 5.701 0.325)
(5.02 5.701 0.345)
(5.02 5.701 0.325)
(5.58 5.681 0.345)
(5.02 5.681 0.345)
(5.58 5.681 0.325)
(5.02 5.681 0.325)
(5.6 4.2 0.85)
(5.1 4.2 0.85)
(5.6 4.2 0.87)
(5.1 4.2 0.87)
(5.6 3.6 0.85)
(5.6 3.6 0.87)
(5.1 3.6 0.85)
(5.1 3.6 0.87)
(5.6 3.621 0.1)
(5.58 3.621 0.1)
(5.6 3.621 0.85)
(5.58 3.621 0.85)
(5.6 3.601 0.1)
(5.6 3.601 0.85)
(5.58 3.601 0.1)
(5.58 3.601 0.85)
(5.6 4.201 0.1)
(5.58 4.201 0.1)
(5.6 4.201 0.85)
(5.58 4.201 0.85)
(5.6 4.181 0.1)
(5.6 4.181 0.85)
(5.58 4.181 0.1)
(5.58 4.181 0.85)
(5.25 4.075 0.5)
(4.9 4.075 0.5)
(5.25 4.075 0.52)
(4.9 4.075 0.52)
(5.25 3.725 0.5)
(5.25 3.725 0.52)
(4.9 3.725 0.5)
(4.9 3.725 0.52)
(5.02 3.601 0.1)
(5.02 3.621 0.1)
(5.02 4.201 0.1)
(5.02 4.181 0.1)
(5 4.181 0.1)
(5 3.621 0.1)
(5 3.601 0.1)
(5 4.201 0.1)
(4.81 4.001 0.855)
(4.81 4.021 0.855)
(4.83 4.001 0.855)
(5.005 4.001 0.5)
(5.005 4.001 0.48)
(4.83 4.021 0.855)
(5.005 4.021 0.5)
(5.005 4.021 0.48)
(4.83 3.776 0.855)
(4.81 3.776 0.855)
(5.005 3.776 0.5)
(5.005 3.776 0.48)
(5.005 3.796 0.48)
(4.83 3.796 0.855)
(5.005 3.796 0.5)
(4.81 3.796 0.855)
(5.58 3.621 0.345)
(5.58 3.621 0.325)
(5.02 3.621 0.345)
(5.02 3.621 0.325)
(5.58 3.601 0.345)
(5.02 3.601 0.345)
(5.58 3.601 0.325)
(5.02 3.601 0.325)
(5.58 4.201 0.345)
(5.58 4.201 0.325)
(5.02 4.201 0.345)
(5.02 4.201 0.325)
(5.58 4.181 0.345)
(5.02 4.181 0.345)
(5.58 4.181 0.325)
(5.02 4.181 0.325)
(5.6 7.2 0.85)
(5.1 7.2 0.85)
(5.6 7.2 0.87)
(5.1 7.2 0.87)
(5.6 6.6 0.85)
(5.6 6.6 0.87)
(5.1 6.6 0.85)
(5.1 6.6 0.87)
(5.6 6.621 0.1)
(5.58 6.621 0.1)
(5.6 6.621 0.85)
(5.58 6.621 0.85)
(5.6 6.601 0.1)
(5.6 6.601 0.85)
(5.58 6.601 0.1)
(5.58 6.601 0.85)
(5.6 7.201 0.1)
(5.58 7.201 0.1)
(5.6 7.201 0.85)
(5.58 7.201 0.85)
(5.6 7.181 0.1)
(5.6 7.181 0.85)
(5.58 7.181 0.1)
(5.58 7.181 0.85)
(5.25 7.075 0.5)
(4.9 7.075 0.5)
(5.25 7.075 0.52)
(4.9 7.075 0.52)
(5.25 6.725 0.5)
(5.25 6.725 0.52)
(4.9 6.725 0.5)
(4.9 6.725 0.52)
(5.02 6.601 0.1)
(5.02 6.621 0.1)
(5.02 7.201 0.1)
(5.02 7.181 0.1)
(5 7.181 0.1)
(5 6.621 0.1)
(5 6.601 0.1)
(5 7.201 0.1)
(4.81 7.001 0.855)
(4.81 7.021 0.855)
(4.83 7.001 0.855)
(5.005 7.001 0.5)
(5.005 7.001 0.48)
(4.83 7.021 0.855)
(5.005 7.021 0.5)
(5.005 7.021 0.48)
(4.83 6.776 0.855)
(4.81 6.776 0.855)
(5.005 6.776 0.5)
(5.005 6.776 0.48)
(5.005 6.796 0.48)
(4.83 6.796 0.855)
(5.005 6.796 0.5)
(4.81 6.796 0.855)
(5.58 6.621 0.345)
(5.58 6.621 0.325)
(5.02 6.621 0.345)
(5.02 6.621 0.325)
(5.58 6.601 0.345)
(5.02 6.601 0.345)
(5.58 6.601 0.325)
(5.02 6.601 0.325)
(5.58 7.201 0.345)
(5.58 7.201 0.325)
(5.02 7.201 0.345)
(5.02 7.201 0.325)
(5.58 7.181 0.345)
(5.02 7.181 0.345)
(5.58 7.181 0.325)
(5.02 7.181 0.325)
(5.6 2.7 0.85)
(5.1 2.7 0.85)
(5.6 2.7 0.87)
(5.1 2.7 0.87)
(5.6 2.1 0.85)
(5.6 2.1 0.87)
(5.1 2.1 0.85)
(5.1 2.1 0.87)
(5.6 2.121 0.1)
(5.58 2.121 0.1)
(5.6 2.121 0.85)
(5.58 2.121 0.85)
(5.6 2.101 0.1)
(5.6 2.101 0.85)
(5.58 2.101 0.1)
(5.58 2.101 0.85)
(5.6 2.701 0.1)
(5.58 2.701 0.1)
(5.6 2.701 0.85)
(5.58 2.701 0.85)
(5.6 2.681 0.1)
(5.6 2.681 0.85)
(5.58 2.681 0.1)
(5.58 2.681 0.85)
(5.25 2.575 0.5)
(4.9 2.575 0.5)
(5.25 2.575 0.52)