/*--------------------------------*- C++ -*----------------------------------*\
  =========                 |
  \\      /  F ield         | OpenFOAM: The Open Source CFD Toolbox
   \\    /   O peration     | Website:  https://openfoam.org
    \\  /    A nd           | Version:  12
     \\/     M anipulation  |
\*---------------------------------------------------------------------------*/
FoamFile
{
    format      ascii;
    class       polyBoundaryMesh;
    location    "constant/polyMesh";
    object      boundary;
}
// * * * * * * * * * * * * * * * * * * * * * * * * * * * * * * * * * * * * * //

6
(
    inlet
    {
        type            patch;
        nFaces          2800;
        startFace       676570;
    }
    left
    {
        type            patch;
        nFaces          2870;
        startFace       679370;
    }
    right
    {
        type            patch;
        nFaces          2870;
        startFace       682240;
    }
    outlet
    {
        type            patch;
        nFaces          2800;
        startFace       685110;
    }
    top
    {
        type            patch;
        nFaces          6560;
        startFace       687910;
    }
    bottom
    {
        type            patch;
        nFaces          6560;
        startFace       694470;
    }
)

// ************************************************************************* //
