/*--------------------------------*- C++ -*----------------------------------*\
  =========                 |
  \\      /  F ield         | OpenFOAM: The Open Source CFD Toolbox
   \\    /   O peration     | Website:  https://openfoam.org
    \\  /    A nd           | Version:  12
     \\/     M anipulation  |
\*---------------------------------------------------------------------------*/
FoamFile
{
    format      ascii;
    class       extendedFeatureEdgeMesh;
    location    "constant/extendedFeatureEdgeMesh";
    object      BEx.extendedFeatureEdgeMesh;
}
// * * * * * * * * * * * * * * * * * * * * * * * * * * * * * * * * * * * * * //

// points

2891
(
(6.7 9 0)
(0 9 0.25)
(6.7 0 0)
(6.7 0 0.25)
(0 0 0.25)
(0.22 8.7 2.75)
(0.22 8.7 1)
(0.22 9 2.75)
(0.22 9 1)
(0.1 8.5 2.75)
(0.1 0 1.9)
(0.1 0 0.9)
(0.1 8.5 0.9)
(0 0 2.75)
(-0.25 0 2.75)
(-0.25 0 0)
(6.95 9 0)
(6.95 9 2.75)
(3 8.5 0.9)
(3 8.5 1)
(3 8.7 2.75)
(3.2 8.7 2.75)
(3.2 8.7 0.25)
(3 8.7 0.25)
(4.2 8.7 0.25)
(4.2 8.7 2.75)
(4.6 8.7 2.75)
(4.6 8.7 0.25)
(6.7 8.7 0.25)
(6.7 8.7 2.75)
(5.7 8.7 0.25)
(5.7 8.7 2.75)
(-0.25 9.25 0)
(6.95 9.25 0)
(6.7 8.98976 0)
(6.95 8.98976 0)
(6.95 0 0)
(6.7 0 2.74728)
(6.95 0 2.74728)
(6.7 8.98976 2.74728)
(6.95 8.98976 2.74728)
(6.95239 -0.25 0)
(-0.251349 -0.25 0)
(6.95239 -0.25 2.74731)
(-0.251349 -0.25 2.74731)
(-0.251349 0 0)
(6.95239 0 0)
(-0.251349 0 2.74731)
(6.95239 0 2.74731)
(2.25 1.02 0.25)
(2.25 1.02 0.28)
(2.25 0.97 0.25)
(2.25 0.97 0.28)
(1.85 0.97 0.28)
(1.85 1.02 0.28)
(1.85 1.02 0.25)
(1.95 0.99 1.01)
(1.95 1.01 1.01)
(2 0.99 1.01)
(2 1.01 1.01)
(1.85 0.97 0.25)
(2.25 1.65 0.25)
(2.25 1.65 0.28)
(2.25 1.6 0.25)
(2.25 1.6 0.28)
(1.85 1.6 0.28)
(1.85 1.65 0.28)
(1.85 1.65 0.25)
(2 1.63 1.01)
(1.95 1.63 1.01)
(2 1.61 1.01)
(1.95 1.61 1.01)
(1.85 1.6 0.25)
(2.25 1.01 0.97)
(2.25 1.01 1.01)
(1.85 1.01 0.97)
(1.85 1.01 1.01)
(2.2 1.07 0.9)
(1.9 1.07 0.9)
(1.85 1.61 0.97)
(2.25 1.61 0.97)
(2.2 1.55 0.9)
(2.25 1.61 1.01)
(1.85 1.61 1.01)
(1.9 1.55 0.9)
(2.4 1.5 1.14)
(2.4 1.05 1.14)
(2.43 1.5 1.14)
(2.43 1.05 1.14)
(2.43 1.5 0.69)
(2.43 1.05 0.69)
(1.95 1.05 0.69)
(1.95 1.5 0.69)
(1.95 1.05 0.72)
(1.95 1.5 0.72)
(2.4 1.5 0.25)
(2.4 1.5 0.28)
(2.4 1.45 0.25)
(2.4 1.45 0.28)
(1.95 1.5 0.28)
(1.95 1.45 0.28)
(1.95 1.5 0.25)
(1.95 1.45 0.25)
(2.4 1.1 0.25)
(2.4 1.1 0.28)
(2.4 1.05 0.25)
(2.4 1.05 0.28)
(1.95 1.05 0.28)
(1.95 1.05 0.25)
(1.95 1.1 0.28)
(1.95 1.1 0.25)
(1.25 1.02 0.25)
(1.25 1.02 0.28)
(1.25 0.97 0.25)
(1.25 0.97 0.28)
(0.85 0.97 0.28)
(0.85 1.02 0.28)
(0.85 1.02 0.25)
(0.95 0.99 1.01)
(0.95 1.01 1.01)
(1 0.99 1.01)
(1 1.01 1.01)
(0.85 0.97 0.25)
(1.25 1.65 0.25)
(1.25 1.65 0.28)
(1.25 1.6 0.25)
(1.25 1.6 0.28)
(0.85 1.6 0.28)
(0.85 1.65 0.28)
(0.85 1.65 0.25)
(1 1.63 1.01)
(0.95 1.63 1.01)
(1 1.61 1.01)
(0.95 1.61 1.01)
(0.85 1.6 0.25)
(1.25 1.01 0.97)
(1.25 1.01 1.01)
(0.85 1.01 0.97)
(0.85 1.01 1.01)
(1.2 1.07 0.9)
(0.9 1.07 0.9)
(0.85 1.61 0.97)
(1.25 1.61 0.97)
(1.2 1.55 0.9)
(1.25 1.61 1.01)
(0.85 1.61 1.01)
(0.9 1.55 0.9)
(1.4 1.5 1.14)
(1.4 1.05 1.14)
(1.43 1.5 1.14)
(1.43 1.05 1.14)
(1.43 1.5 0.69)
(1.43 1.05 0.69)
(0.95 1.05 0.69)
(0.95 1.5 0.69)
(0.95 1.05 0.72)
(0.95 1.5 0.72)
(1.4 1.5 0.25)
(1.4 1.5 0.28)
(1.4 1.45 0.25)
(1.4 1.45 0.28)
(0.95 1.5 0.28)
(0.95 1.45 0.28)
(0.95 1.5 0.25)
(0.95 1.45 0.25)
(1.4 1.1 0.25)
(1.4 1.1 0.28)
(1.4 1.05 0.25)
(1.4 1.05 0.28)
(0.95 1.05 0.28)
(0.95 1.05 0.25)
(0.95 1.1 0.28)
(0.95 1.1 0.25)
(3.25 1.02 0.25)
(3.25 1.02 0.28)
(3.25 0.97 0.25)
(3.25 0.97 0.28)
(2.85 0.97 0.28)
(2.85 1.02 0.28)
(2.85 1.02 0.25)
(2.95 0.99 1.01)
(2.95 1.01 1.01)
(3 0.99 1.01)
(3 1.01 1.01)
(2.85 0.97 0.25)
(3.25 1.65 0.25)
(3.25 1.65 0.28)
(3.25 1.6 0.25)
(3.25 1.6 0.28)
(2.85 1.6 0.28)
(2.85 1.65 0.28)
(2.85 1.65 0.25)
(3 1.63 1.01)
(2.95 1.63 1.01)
(3 1.61 1.01)
(2.95 1.61 1.01)
(2.85 1.6 0.25)
(3.25 1.01 0.97)
(3.25 1.01 1.01)
(2.85 1.01 0.97)
(2.85 1.01 1.01)
(3.2 1.07 0.9)
(2.9 1.07 0.9)
(2.85 1.61 0.97)
(3.25 1.61 0.97)
(3.2 1.55 0.9)
(3.25 1.61 1.01)
(2.85 1.61 1.01)
(2.9 1.55 0.9)
(3.4 1.5 1.14)
(3.4 1.05 1.14)
(3.43 1.5 1.14)
(3.43 1.05 1.14)
(3.43 1.5 0.69)
(3.43 1.05 0.69)
(2.95 1.05 0.69)
(2.95 1.5 0.69)
(2.95 1.05 0.72)
(2.95 1.5 0.72)
(3.4 1.5 0.25)
(3.4 1.5 0.28)
(3.4 1.45 0.25)
(3.4 1.45 0.28)
(2.95 1.5 0.28)
(2.95 1.45 0.28)
(2.95 1.5 0.25)
(2.95 1.45 0.25)
(3.4 1.1 0.25)
(3.4 1.1 0.28)
(3.4 1.05 0.25)
(3.4 1.05 0.28)
(2.95 1.05 0.28)
(2.95 1.05 0.25)
(2.95 1.1 0.28)
(2.95 1.1 0.25)
(4.25 1.02 0.25)
(4.25 1.02 0.28)
(4.25 0.97 0.25)
(4.25 0.97 0.28)
(3.85 0.97 0.28)
(3.85 1.02 0.28)
(3.85 1.02 0.25)
(3.95 0.99 1.01)
(3.95 1.01 1.01)
(4 0.99 1.01)
(4 1.01 1.01)
(3.85 0.97 0.25)
(4.25 1.65 0.25)
(4.25 1.65 0.28)
(4.25 1.6 0.25)
(4.25 1.6 0.28)
(3.85 1.6 0.28)
(3.85 1.65 0.28)
(3.85 1.65 0.25)
(4 1.63 1.01)
(3.95 1.63 1.01)
(4 1.61 1.01)
(3.95 1.61 1.01)
(3.85 1.6 0.25)
(4.25 1.01 0.97)
(4.25 1.01 1.01)
(3.85 1.01 0.97)
(3.85 1.01 1.01)
(4.2 1.07 0.9)
(3.9 1.07 0.9)
(3.85 1.61 0.97)
(4.25 1.61 0.97)
(4.2 1.55 0.9)
(4.25 1.61 1.01)
(3.85 1.61 1.01)
(3.9 1.55 0.9)
(4.4 1.5 1.14)
(4.4 1.05 1.14)
(4.43 1.5 1.14)
(4.43 1.05 1.14)
(4.43 1.5 0.69)
(4.43 1.05 0.69)
(3.95 1.05 0.69)
(3.95 1.5 0.69)
(3.95 1.05 0.72)
(3.95 1.5 0.72)
(4.4 1.5 0.25)
(4.4 1.5 0.28)
(4.4 1.45 0.25)
(4.4 1.45 0.28)
(3.95 1.5 0.28)
(3.95 1.45 0.28)
(3.95 1.5 0.25)
(3.95 1.45 0.25)
(4.4 1.1 0.25)
(4.4 1.1 0.28)
(4.4 1.05 0.25)
(4.4 1.05 0.28)
(3.95 1.05 0.28)
(3.95 1.05 0.25)
(3.95 1.1 0.28)
(3.95 1.1 0.25)
(5.25 1.02 0.25)
(5.25 1.02 0.28)
(5.25 0.97 0.25)
(5.25 0.97 0.28)
(4.85 0.97 0.28)
(4.85 1.02 0.28)
(4.85 1.02 0.25)
(4.95 0.99 1.01)
(4.95 1.01 1.01)
(5 0.99 1.01)
(5 1.01 1.01)
(4.85 0.97 0.25)
(5.25 1.65 0.25)
(5.25 1.65 0.28)
(5.25 1.6 0.25)
(5.25 1.6 0.28)
(4.85 1.6 0.28)
(4.85 1.65 0.28)
(4.85 1.65 0.25)
(5 1.63 1.01)
(4.95 1.63 1.01)
(5 1.61 1.01)
(4.95 1.61 1.01)
(4.85 1.6 0.25)
(5.25 1.01 0.97)
(5.25 1.01 1.01)
(4.85 1.01 0.97)
(4.85 1.01 1.01)
(5.2 1.07 0.9)
(4.9 1.07 0.9)
(4.85 1.61 0.97)
(5.25 1.61 0.97)
(5.2 1.55 0.9)
(5.25 1.61 1.01)
(4.85 1.61 1.01)
(4.9 1.55 0.9)
(5.4 1.5 1.14)
(5.4 1.05 1.14)
(5.43 1.5 1.14)
(5.43 1.05 1.14)
(5.43 1.5 0.69)
(5.43 1.05 0.69)
(4.95 1.05 0.69)
(4.95 1.5 0.69)
(4.95 1.05 0.72)
(4.95 1.5 0.72)
(5.4 1.5 0.25)
(5.4 1.5 0.28)
(5.4 1.45 0.25)
(5.4 1.45 0.28)
(4.95 1.5 0.28)
(4.95 1.45 0.28)
(4.95 1.5 0.25)
(4.95 1.45 0.25)
(5.4 1.1 0.25)
(5.4 1.1 0.28)
(5.4 1.05 0.25)
(5.4 1.05 0.28)
(4.95 1.05 0.28)
(4.95 1.05 0.25)
(4.95 1.1 0.28)
(4.95 1.1 0.25)
(2.25 2.27 0.25)
(2.25 2.27 0.28)
(2.25 2.22 0.25)
(2.25 2.22 0.28)
(1.85 2.22 0.28)
(1.85 2.27 0.28)
(1.85 2.27 0.25)
(1.95 2.24 1.01)
(1.95 2.26 1.01)
(2 2.24 1.01)
(2 2.26 1.01)
(1.85 2.22 0.25)
(2.25 2.9 0.25)
(2.25 2.9 0.28)
(2.25 2.85 0.25)
(2.25 2.85 0.28)
(1.85 2.85 0.28)
(1.85 2.9 0.28)
(1.85 2.9 0.25)
(2 2.88 1.01)
(1.95 2.88 1.01)
(2 2.86 1.01)
(1.95 2.86 1.01)
(1.85 2.85 0.25)
(2.25 2.26 0.97)
(2.25 2.26 1.01)
(1.85 2.26 0.97)
(1.85 2.26 1.01)
(2.2 2.32 0.9)
(1.9 2.32 0.9)
(1.85 2.86 0.97)
(2.25 2.86 0.97)
(2.2 2.8 0.9)
(2.25 2.86 1.01)
(1.85 2.86 1.01)
(1.9 2.8 0.9)
(2.4 2.75 1.14)
(2.4 2.3 1.14)
(2.43 2.75 1.14)
(2.43 2.3 1.14)
(2.43 2.75 0.69)
(2.43 2.3 0.69)
(1.95 2.3 0.69)
(1.95 2.75 0.69)
(1.95 2.3 0.72)
(1.95 2.75 0.72)
(2.4 2.75 0.25)
(2.4 2.75 0.28)
(2.4 2.7 0.25)
(2.4 2.7 0.28)
(1.95 2.75 0.28)
(1.95 2.7 0.28)
(1.95 2.75 0.25)
(1.95 2.7 0.25)
(2.4 2.35 0.25)
(2.4 2.35 0.28)
(2.4 2.3 0.25)
(2.4 2.3 0.28)
(1.95 2.3 0.28)
(1.95 2.3 0.25)
(1.95 2.35 0.28)
(1.95 2.35 0.25)
(5.25 2.27 0.25)
(5.25 2.27 0.28)
(5.25 2.22 0.25)
(5.25 2.22 0.28)
(4.85 2.22 0.28)
(4.85 2.27 0.28)
(4.85 2.27 0.25)
(4.95 2.24 1.01)
(4.95 2.26 1.01)
(5 2.24 1.01)
(5 2.26 1.01)
(4.85 2.22 0.25)
(5.25 2.9 0.25)
(5.25 2.9 0.28)
(5.25 2.85 0.25)
(5.25 2.85 0.28)
(4.85 2.85 0.28)
(4.85 2.9 0.28)
(4.85 2.9 0.25)
(5 2.88 1.01)
(4.95 2.88 1.01)
(5 2.86 1.01)
(4.95 2.86 1.01)
(4.85 2.85 0.25)
(5.25 2.26 0.97)
(5.25 2.26 1.01)
(4.85 2.26 0.97)
(4.85 2.26 1.01)
(5.2 2.32 0.9)
(4.9 2.32 0.9)
(4.85 2.86 0.97)
(5.25 2.86 0.97)
(5.2 2.8 0.9)
(5.25 2.86 1.01)
(4.85 2.86 1.01)
(4.9 2.8 0.9)
(5.4 2.75 1.14)
(5.4 2.3 1.14)
(5.43 2.75 1.14)
(5.43 2.3 1.14)
(5.43 2.75 0.69)
(5.43 2.3 0.69)
(4.95 2.3 0.69)
(4.95 2.75 0.69)
(4.95 2.3 0.72)
(4.95 2.75 0.72)
(5.4 2.75 0.25)
(5.4 2.75 0.28)
(5.4 2.7 0.25)
(5.4 2.7 0.28)
(4.95 2.75 0.28)
(4.95 2.7 0.28)
(4.95 2.75 0.25)
(4.95 2.7 0.25)
(5.4 2.35 0.25)
(5.4 2.35 0.28)
(5.4 2.3 0.25)
(5.4 2.3 0.28)
(4.95 2.3 0.28)
(4.95 2.3 0.25)
(4.95 2.35 0.28)
(4.95 2.35 0.25)
(4.25 2.27 0.25)
(4.25 2.27 0.28)
(4.25 2.22 0.25)
(4.25 2.22 0.28)
(3.85 2.22 0.28)
(3.85 2.27 0.28)
(3.85 2.27 0.25)
(3.95 2.24 1.01)
(3.95 2.26 1.01)
(4 2.24 1.01)
(4 2.26 1.01)
(3.85 2.22 0.25)
(4.25 2.9 0.25)
(4.25 2.9 0.28)
(4.25 2.85 0.25)
(4.25 2.85 0.28)
(3.85 2.85 0.28)
(3.85 2.9 0.28)
(3.85 2.9 0.25)
(4 2.88 1.01)
(3.95 2.88 1.01)
(4 2.86 1.01)
(3.95 2.86 1.01)
(3.85 2.85 0.25)
(4.25 2.26 0.97)
(4.25 2.26 1.01)
(3.85 2.26 0.97)
(3.85 2.26 1.01)
(4.2 2.32 0.9)
(3.9 2.32 0.9)
(3.85 2.86 0.97)
(4.25 2.86 0.97)
(4.2 2.8 0.9)
(4.25 2.86 1.01)
(3.85 2.86 1.01)
(3.9 2.8 0.9)
(4.4 2.75 1.14)
(4.4 2.3 1.14)
(4.43 2.75 1.14)
(4.43 2.3 1.14)
(4.43 2.75 0.69)
(4.43 2.3 0.69)
(3.95 2.3 0.69)
(3.95 2.75 0.69)
(3.95 2.3 0.72)
(3.95 2.75 0.72)
(4.4 2.75 0.25)
(4.4 2.75 0.28)
(4.4 2.7 0.25)
(4.4 2.7 0.28)
(3.95 2.75 0.28)
(3.95 2.7 0.28)
(3.95 2.75 0.25)
(3.95 2.7 0.25)
(4.4 2.35 0.25)
(4.4 2.35 0.28)
(4.4 2.3 0.25)
(4.4 2.3 0.28)
(3.95 2.3 0.28)
(3.95 2.3 0.25)
(3.95 2.35 0.28)
(3.95 2.35 0.25)
(3.25 2.27 0.25)
(3.25 2.27 0.28)
(3.25 2.22 0.25)
(3.25 2.22 0.28)
(2.85 2.22 0.28)
(2.85 2.27 0.28)
(2.85 2.27 0.25)
(2.95 2.24 1.01)
(2.95 2.26 1.01)
(3 2.24 1.01)
(3 2.26 1.01)
(2.85 2.22 0.25)
(3.25 2.9 0.25)
(3.25 2.9 0.28)
(3.25 2.85 0.25)
(3.25 2.85 0.28)
(2.85 2.85 0.28)
(2.85 2.9 0.28)
(2.85 2.9 0.25)
(3 2.88 1.01)
(2.95 2.88 1.01)
(3 2.86 1.01)
(2.95 2.86 1.01)
(2.85 2.85 0.25)
(3.25 2.26 0.97)
(3.25 2.26 1.01)
(2.85 2.26 0.97)
(2.85 2.26 1.01)
(3.2 2.32 0.9)
(2.9 2.32 0.9)
(2.85 2.86 0.97)
(3.25 2.86 0.97)
(3.2 2.8 0.9)
(3.25 2.86 1.01)
(2.85 2.86 1.01)
(2.9 2.8 0.9)
(3.4 2.75 1.14)
(3.4 2.3 1.14)
(3.43 2.75 1.14)
(3.43 2.3 1.14)
(3.43 2.75 0.69)
(3.43 2.3 0.69)
(2.95 2.3 0.69)
(2.95 2.75 0.69)
(2.95 2.3 0.72)
(2.95 2.75 0.72)
(3.4 2.75 0.25)
(3.4 2.75 0.28)
(3.4 2.7 0.25)
(3.4 2.7 0.28)
(2.95 2.75 0.28)
(2.95 2.7 0.28)
(2.95 2.75 0.25)
(2.95 2.7 0.25)
(3.4 2.35 0.25)
(3.4 2.35 0.28)
(3.4 2.3 0.25)
(3.4 2.3 0.28)
(2.95 2.3 0.28)
(2.95 2.3 0.25)
(2.95 2.35 0.28)
(2.95 2.35 0.25)
(1.25 2.27 0.25)
(1.25 2.27 0.28)
(1.25 2.22 0.25)
(1.25 2.22 0.28)
(0.85 2.22 0.28)
(0.85 2.27 0.28)
(0.85 2.27 0.25)
(0.95 2.24 1.01)
(0.95 2.26 1.01)
(1 2.24 1.01)
(1 2.26 1.01)
(0.85 2.22 0.25)
(1.25 2.9 0.25)
(1.25 2.9 0.28)
(1.25 2.85 0.25)
(1.25 2.85 0.28)
(0.85 2.85 0.28)
(0.85 2.9 0.28)
(0.85 2.9 0.25)
(1 2.88 1.01)
(0.95 2.88 1.01)
(1 2.86 1.01)
(0.95 2.86 1.01)
(0.85 2.85 0.25)
(1.25 2.26 0.97)
(1.25 2.26 1.01)
(0.85 2.26 0.97)
(0.85 2.26 1.01)
(1.2 2.32 0.9)
(0.9 2.32 0.9)
(0.85 2.86 0.97)
(1.25 2.86 0.97)
(1.2 2.8 0.9)
(1.25 2.86 1.01)
(0.85 2.86 1.01)
(0.9 2.8 0.9)
(1.4 2.75 1.14)
(1.4 2.3 1.14)
(1.43 2.75 1.14)
(1.43 2.3 1.14)
(1.43 2.75 0.69)
(1.43 2.3 0.69)
(0.95 2.3 0.69)
(0.95 2.75 0.69)
(0.95 2.3 0.72)
(0.95 2.75 0.72)
(1.4 2.75 0.25)
(1.4 2.75 0.28)
(1.4 2.7 0.25)
(1.4 2.7 0.28)
(0.95 2.75 0.28)
(0.95 2.7 0.28)
(0.95 2.75 0.25)
(0.95 2.7 0.25)
(1.4 2.35 0.25)
(1.4 2.35 0.28)
(1.4 2.3 0.25)
(1.4 2.3 0.28)
(0.95 2.3 0.28)
(0.95 2.3 0.25)
(0.95 2.35 0.28)
(0.95 2.35 0.25)
(2.25 3.52 0.25)
(2.25 3.52 0.28)
(2.25 3.47 0.25)
(2.25 3.47 0.28)
(1.85 3.47 0.28)
(1.85 3.52 0.28)
(1.85 3.52 0.25)
(1.95 3.49 1.01)
(1.95 3.51 1.01)
(2 3.49 1.01)
(2 3.51 1.01)
(1.85 3.47 0.25)
(2.25 4.15 0.25)
(2.25 4.15 0.28)
(2.25 4.1 0.25)
(2.25 4.1 0.28)
(1.85 4.1 0.28)
(1.85 4.15 0.28)
(1.85 4.15 0.25)
(2 4.13 1.01)
(1.95 4.13 1.01)
(2 4.11 1.01)
(1.95 4.11 1.01)
(1.85 4.1 0.25)
(2.25 3.51 0.97)
(2.25 3.51 1.01)
(1.85 3.51 0.97)
(1.85 3.51 1.01)
(2.2 3.57 0.9)
(1.9 3.57 0.9)
(1.85 4.11 0.97)
(2.25 4.11 0.97)
(2.2 4.05 0.9)
(2.25 4.11 1.01)
(1.85 4.11 1.01)
(1.9 4.05 0.9)
(2.4 4 1.14)
(2.4 3.55 1.14)
(2.43 4 1.14)
(2.43 3.55 1.14)
(2.43 4 0.69)
(2.43 3.55 0.69)
(1.95 3.55 0.69)
(1.95 4 0.69)
(1.95 3.55 0.72)
(1.95 4 0.72)
(2.4 4 0.25)
(2.4 4 0.28)
(2.4 3.95 0.25)
(2.4 3.95 0.28)
(1.95 4 0.28)
(1.95 3.95 0.28)
(1.95 4 0.25)
(1.95 3.95 0.25)
(2.4 3.6 0.25)
(2.4 3.6 0.28)
(2.4 3.55 0.25)
(2.4 3.55 0.28)
(1.95 3.55 0.28)
(1.95 3.55 0.25)
(1.95 3.6 0.28)
(1.95 3.6 0.25)
(5.25 3.52 0.25)
(5.25 3.52 0.28)
(5.25 3.47 0.25)
(5.25 3.47 0.28)
(4.85 3.47 0.28)
(4.85 3.52 0.28)
(4.85 3.52 0.25)
(4.95 3.49 1.01)
(4.95 3.51 1.01)
(5 3.49 1.01)
(5 3.51 1.01)
(4.85 3.47 0.25)
(5.25 4.15 0.25)
(5.25 4.15 0.28)
(5.25 4.1 0.25)
(5.25 4.1 0.28)
(4.85 4.1 0.28)
(4.85 4.15 0.28)
(4.85 4.15 0.25)
(5 4.13 1.01)
(4.95 4.13 1.01)
(5 4.11 1.01)
(4.95 4.11 1.01)
(4.85 4.1 0.25)
(5.25 3.51 0.97)
(5.25 3.51 1.01)
(4.85 3.51 0.97)
(4.85 3.51 1.01)
(5.2 3.57 0.9)
(4.9 3.57 0.9)
(4.85 4.11 0.97)
(5.25 4.11 0.97)
(5.2 4.05 0.9)
(5.25 4.11 1.01)
(4.85 4.11 1.01)
(4.9 4.05 0.9)
(5.4 4 1.14)
(5.4 3.55 1.14)
(5.43 4 1.14)
(5.43 3.55 1.14)
(5.43 4 0.69)
(5.43 3.55 0.69)
(4.95 3.55 0.69)
(4.95 4 0.69)
(4.95 3.55 0.72)
(4.95 4 0.72)
(5.4 4 0.25)
(5.4 4 0.28)
(5.4 3.95 0.25)
(5.4 3.95 0.28)
(4.95 4 0.28)
(4.95 3.95 0.28)
(4.95 4 0.25)
(4.95 3.95 0.25)
(5.4 3.6 0.25)
(5.4 3.6 0.28)
(5.4 3.55 0.25)
(5.4 3.55 0.28)
(4.95 3.55 0.28)
(4.95 3.55 0.25)
(4.95 3.6 0.28)
(4.95 3.6 0.25)
(3.25 3.52 0.25)
(3.25 3.52 0.28)
(3.25 3.47 0.25)
(3.25 3.47 0.28)
(2.85 3.47 0.28)
(2.85 3.52 0.28)
(2.85 3.52 0.25)
(2.95 3.49 1.01)
(2.95 3.51 1.01)
(3 3.49 1.01)
(3 3.51 1.01)
(2.85 3.47 0.25)
(3.25 4.15 0.25)
(3.25 4.15 0.28)
(3.25 4.1 0.25)
(3.25 4.1 0.28)
(2.85 4.1 0.28)
(2.85 4.15 0.28)
(2.85 4.15 0.25)
(3 4.13 1.01)
(2.95 4.13 1.01)
(3 4.11 1.01)
(2.95 4.11 1.01)
(2.85 4.1 0.25)
(3.25 3.51 0.97)
(3.25 3.51 1.01)
(2.85 3.51 0.97)
(2.85 3.51 1.01)
(3.2 3.57 0.9)
(2.9 3.57 0.9)
(2.85 4.11 0.97)
(3.25 4.11 0.97)
(3.2 4.05 0.9)
(3.25 4.11 1.01)
(2.85 4.11 1.01)
(2.9 4.05 0.9)
(3.4 4 1.14)
(3.4 3.55 1.14)
(3.43 4 1.14)
(3.43 3.55 1.14)
(3.43 4 0.69)
(3.43 3.55 0.69)
(2.95 3.55 0.69)
(2.95 4 0.69)
(2.95 3.55 0.72)
(2.95 4 0.72)
(3.4 4 0.25)
(3.4 4 0.28)
(3.4 3.95 0.25)
(3.4 3.95 0.28)
(2.95 4 0.28)
(2.95 3.95 0.28)
(2.95 4 0.25)
(2.95 3.95 0.25)
(3.4 3.6 0.25)
(3.4 3.6 0.28)
(3.4 3.55 0.25)
(3.4 3.55 0.28)
(2.95 3.55 0.28)
(2.95 3.55 0.25)
(2.95 3.6 0.28)
(2.95 3.6 0.25)
(4.25 3.52 0.25)
(4.25 3.52 0.28)
(4.25 3.47 0.25)
(4.25 3.47 0.28)
(3.85 3.47 0.28)
(3.85 3.52 0.28)
(3.85 3.52 0.25)
(3.95 3.49 1.01)
(3.95 3.51 1.01)
(4 3.49 1.01)
(4 3.51 1.01)
(3.85 3.47 0.25)
(4.25 4.15 0.25)
(4.25 4.15 0.28)
(4.25 4.1 0.25)
(4.25 4.1 0.28)
(3.85 4.1 0.28)
(3.85 4.15 0.28)
(3.85 4.15 0.25)
(4 4.13 1.01)
(3.95 4.13 1.01)
(4 4.11 1.01)
(3.95 4.11 1.01)
(3.85 4.1 0.25)
(4.25 3.51 0.97)
(4.25 3.51 1.01)
(3.85 3.51 0.97)
(3.85 3.51 1.01)
(4.2 3.57 0.9)
(3.9 3.57 0.9)
(3.85 4.11 0.97)
(4.25 4.11 0.97)
(4.2 4.05 0.9)
(4.25 4.11 1.01)
(3.85 4.11 1.01)
(3.9 4.05 0.9)
(4.4 4 1.14)
(4.4 3.55 1.14)
(4.43 4 1.14)
(4.43 3.55 1.14)
(4.43 4 0.69)
(4.43 3.55 0.69)
(3.95 3.55 0.69)
(3.95 4 0.69)
(3.95 3.55 0.72)
(3.95 4 0.72)
(4.4 4 0.25)
(4.4 4 0.28)
(4.4 3.95 0.25)
(4.4 3.95 0.28)
(3.95 4 0.28)
(3.95 3.95 0.28)
(3.95 4 0.25)
(3.95 3.95 0.25)
(4.4 3.6 0.25)
(4.4 3.6 0.28)
(4.4 3.55 0.25)
(4.4 3.55 0.28)
(3.95 3.55 0.28)
(3.95 3.55 0.25)
(3.95 3.6 0.28)
(3.95 3.6 0.25)
(1.25 3.52 0.25)
(1.25 3.52 0.28)
(1.25 3.47 0.25)
(1.25 3.47 0.28)
(0.85 3.47 0.28)
(0.85 3.52 0.28)
(0.85 3.52 0.25)
(0.95 3.49 1.01)
(0.95 3.51 1.01)
(1 3.49 1.01)
(1 3.51 1.01)
(0.85 3.47 0.25)
(1.25 4.15 0.25)
(1.25 4.15 0.28)
(1.25 4.1 0.25)
(1.25 4.1 0.28)
(0.85 4.1 0.28)
(0.85 4.15 0.28)
(0.85 4.15 0.25)
(1 4.13 1.01)
(0.95 4.13 1.01)
(1 4.11 1.01)
(0.95 4.11 1.01)
(0.85 4.1 0.25)
(1.25 3.51 0.97)
(1.25 3.51 1.01)
(0.85 3.51 0.97)
(0.85 3.51 1.01)
(1.2 3.57 0.9)
(0.9 3.57 0.9)
(0.85 4.11 0.97)
(1.25 4.11 0.97)
(1.2 4.05 0.9)
(1.25 4.11 1.01)
(0.85 4.11 1.01)
(0.9 4.05 0.9)
(1.4 4 1.14)
(1.4 3.55 1.14)
(1.43 4 1.14)
(1.43 3.55 1.14)
(1.43 4 0.69)
(1.43 3.55 0.69)
(0.95 3.55 0.69)
(0.95 4 0.69)
(0.95 3.55 0.72)
(0.95 4 0.72)
(1.4 4 0.25)
(1.4 4 0.28)
(1.4 3.95 0.25)
(1.4 3.95 0.28)
(0.95 4 0.28)
(0.95 3.95 0.28)
(0.95 4 0.25)
(0.95 3.95 0.25)
(1.4 3.6 0.25)
(1.4 3.6 0.28)
(1.4 3.55 0.25)
(1.4 3.55 0.28)
(0.95 3.55 0.28)
(0.95 3.55 0.25)
(0.95 3.6 0.28)
(0.95 3.6 0.25)
(2.25 4.82 0.25)
(2.25 4.82 0.28)
(2.25 4.77 0.25)
(2.25 4.77 0.28)
(1.85 4.77 0.28)
(1.85 4.82 0.28)
(1.85 4.82 0.25)
(1.95 4.79 1.01)
(1.95 4.81 1.01)
(2 4.79 1.01)
(2 4.81 1.01)
(1.85 4.77 0.25)
(2.25 5.45 0.25)
(2.25 5.45 0.28)
(2.25 5.4 0.25)
(2.25 5.4 0.28)
(1.85 5.4 0.28)
(1.85 5.45 0.28)
(1.85 5.45 0.25)
(2 5.43 1.01)
(1.95 5.43 1.01)
(2 5.41 1.01)
(1.95 5.41 1.01)
(1.85 5.4 0.25)
(2.25 4.81 0.97)
(2.25 4.81 1.01)
(1.85 4.81 0.97)
(1.85 4.81 1.01)
(2.2 4.87 0.9)
(1.9 4.87 0.9)
(1.85 5.41 0.97)
(2.25 5.41 0.97)
(2.2 5.35 0.9)
(2.25 5.41 1.01)
(1.85 5.41 1.01)
(1.9 5.35 0.9)
(2.4 5.3 1.14)
(2.4 4.85 1.14)
(2.43 5.3 1.14)
(2.43 4.85 1.14)
(2.43 5.3 0.69)
(2.43 4.85 0.69)
(1.95 4.85 0.69)
(1.95 5.3 0.69)
(1.95 4.85 0.72)
(1.95 5.3 0.72)
(2.4 5.3 0.25)
(2.4 5.3 0.28)
(2.4 5.25 0.25)
(2.4 5.25 0.28)
(1.95 5.3 0.28)
(1.95 5.25 0.28)
(1.95 5.3 0.25)
(1.95 5.25 0.25)
(2.4 4.9 0.25)
(2.4 4.9 0.28)
(2.4 4.85 0.25)
(2.4 4.85 0.28)
(1.95 4.85 0.28)
(1.95 4.85 0.25)
(1.95 4.9 0.28)
(1.95 4.9 0.25)
(2.25 6.07 0.25)
(2.25 6.07 0.28)
(2.25 6.02 0.25)
(2.25 6.02 0.28)
(1.85 6.02 0.28)
(1.85 6.07 0.28)
(1.85 6.07 0.25)
(1.95 6.04 1.01)
(1.95 6.06 1.01)
(2 6.04 1.01)
(2 6.06 1.01)
(1.85 6.02 0.25)
(2.25 6.7 0.25)
(2.25 6.7 0.28)
(2.25 6.65 0.25)
(2.25 6.65 0.28)
(1.85 6.65 0.28)
(1.85 6.7 0.28)
(1.85 6.7 0.25)
(2 6.68 1.01)
(1.95 6.68 1.01)
(2 6.66 1.01)
(1.95 6.66 1.01)
(1.85 6.65 0.25)
(2.25 6.06 0.97)
(2.25 6.06 1.01)
(1.85 6.06 0.97)
(1.85 6.06 1.01)
(2.2 6.12 0.9)
(1.9 6.12 0.9)
(1.85 6.66 0.97)
(2.25 6.66 0.97)
(2.2 6.6 0.9)
(2.25 6.66 1.01)
(1.85 6.66 1.01)
(1.9 6.6 0.9)
(2.4 6.55 1.14)
(2.4 6.1 1.14)
(2.43 6.55 1.14)
(2.43 6.1 1.14)
(2.43 6.55 0.69)
(2.43 6.1 0.69)
(1.95 6.1 0.69)
(1.95 6.55 0.69)
(1.95 6.1 0.72)
(1.95 6.55 0.72)
(2.4 6.55 0.25)
(2.4 6.55 0.28)
(2.4 6.5 0.25)
(2.4 6.5 0.28)
(1.95 6.55 0.28)
(1.95 6.5 0.28)
(1.95 6.55 0.25)
(1.95 6.5 0.25)
(2.4 6.15 0.25)
(2.4 6.15 0.28)
(2.4 6.1 0.25)
(2.4 6.1 0.28)
(1.95 6.1 0.28)
(1.95 6.1 0.25)
(1.95 6.15 0.28)
(1.95 6.15 0.25)
(5.25 4.82 0.25)
(5.25 4.82 0.28)
(5.25 4.77 0.25)
(5.25 4.77 0.28)
(4.85 4.77 0.28)
(4.85 4.82 0.28)
(4.85 4.82 0.25)
(4.95 4.79 1.01)
(4.95 4.81 1.01)
(5 4.79 1.01)
(5 4.81 1.01)
(4.85 4.77 0.25)
(5.25 5.45 0.25)
(5.25 5.45 0.28)
(5.25 5.4 0.25)
(5.25 5.4 0.28)
(4.85 5.4 0.28)
(4.85 5.45 0.28)
(4.85 5.45 0.25)
(5 5.43 1.01)
(4.95 5.43 1.01)
(5 5.41 1.01)
(4.95 5.41 1.01)
(4.85 5.4 0.25)
(5.25 4.81 0.97)
(5.25 4.81 1.01)
(4.85 4.81 0.97)
(4.85 4.81 1.01)
(5.2 4.87 0.9)
(4.9 4.87 0.9)
(4.85 5.41 0.97)
(5.25 5.41 0.97)
(5.2 5.35 0.9)
(5.25 5.41 1.01)
(4.85 5.41 1.01)
(4.9 5.35 0.9)
(5.4 5.3 1.14)
(5.4 4.85 1.14)
(5.43 5.3 1.14)
(5.43 4.85 1.14)
(5.43 5.3 0.69)
(5.43 4.85 0.69)
(4.95 4.85 0.69)
(4.95 5.3 0.69)
(4.95 4.85 0.72)
(4.95 5.3 0.72)
(5.4 5.3 0.25)
(5.4 5.3 0.28)
(5.4 5.25 0.25)
(5.4 5.25 0.28)
(4.95 5.3 0.28)
(4.95 5.25 0.28)
(4.95 5.3 0.25)
(4.95 5.25 0.25)
(5.4 4.9 0.25)
(5.4 4.9 0.28)
(5.4 4.85 0.25)
(5.4 4.85 0.28)
(4.95 4.85 0.28)
(4.95 4.85 0.25)
(4.95 4.9 0.28)
(4.95 4.9 0.25)
(4.25 4.82 0.25)
(4.25 4.82 0.28)
(4.25 4.77 0.25)
(4.25 4.77 0.28)
(3.85 4.77 0.28)
(3.85 4.82 0.28)
(3.85 4.82 0.25)
(3.95 4.79 1.01)
(3.95 4.81 1.01)
(4 4.79 1.01)
(4 4.81 1.01)
(3.85 4.77 0.25)
(4.25 5.45 0.25)
(4.25 5.45 0.28)
(4.25 5.4 0.25)
(4.25 5.4 0.28)
(3.85 5.4 0.28)
(3.85 5.45 0.28)
(3.85 5.45 0.25)
(4 5.43 1.01)
(3.95 5.43 1.01)
(4 5.41 1.01)
(3.95 5.41 1.01)
(3.85 5.4 0.25)
(4.25 4.81 0.97)
(4.25 4.81 1.01)
(3.85 4.81 0.97)
(3.85 4.81 1.01)
(4.2 4.87 0.9)
(3.9 4.87 0.9)
(3.85 5.41 0.97)
(4.25 5.41 0.97)
(4.2 5.35 0.9)
(4.25 5.41 1.01)
(3.85 5.41 1.01)
(3.9 5.35 0.9)
(4.4 5.3 1.14)
(4.4 4.85 1.14)
(4.43 5.3 1.14)
(4.43 4.85 1.14)
(4.43 5.3 0.69)
(4.43 4.85 0.69)
(3.95 4.85 0.69)
(3.95 5.3 0.69)
(3.95 4.85 0.72)
(3.95 5.3 0.72)
(4.4 5.3 0.25)
(4.4 5.3 0.28)
(4.4 5.25 0.25)
(4.4 5.25 0.28)
(3.95 5.3 0.28)
(3.95 5.25 0.28)
(3.95 5.3 0.25)
(3.95 5.25 0.25)
(4.4 4.9 0.25)
(4.4 4.9 0.28)
(4.4 4.85 0.25)
(4.4 4.85 0.28)
(3.95 4.85 0.28)
(3.95 4.85 0.25)
(3.95 4.9 0.28)
(3.95 4.9 0.25)
(5.25 6.07 0.25)
(5.25 6.07 0.28)
(5.25 6.02 0.25)
(5.25 6.02 0.28)
(4.85 6.02 0.28)
(4.85 6.07 0.28)
(4.85 6.07 0.25)
(4.95 6.04 1.01)
(4.95 6.06 1.01)
(5 6.04 1.01)
(5 6.06 1.01)
(4.85 6.02 0.25)
(5.25 6.7 0.25)
(5.25 6.7 0.28)
(5.25 6.65 0.25)
(5.25 6.65 0.28)
(4.85 6.65 0.28)
(4.85 6.7 0.28)
(4.85 6.7 0.25)
(5 6.68 1.01)
(4.95 6.68 1.01)
(5 6.66 1.01)
(4.95 6.66 1.01)
(4.85 6.65 0.25)
(5.25 6.06 0.97)
(5.25 6.06 1.01)
(4.85 6.06 0.97)
(4.85 6.06 1.01)
(5.2 6.12 0.9)
(4.9 6.12 0.9)
(4.85 6.66 0.97)
(5.25 6.66 0.97)
(5.2 6.6 0.9)
(5.25 6.66 1.01)
(4.85 6.66 1.01)
(4.9 6.6 0.9)
(5.4 6.55 1.14)
(5.4 6.1 1.14)
(5.43 6.55 1.14)
(5.43 6.1 1.14)
(5.43 6.55 0.69)
(5.43 6.1 0.69)
(4.95 6.1 0.69)
(4.95 6.55 0.69)
(4.95 6.1 0.72)
(4.95 6.55 0.72)
(5.4 6.55 0.25)
(5.4 6.55 0.28)
(5.4 6.5 0.25)
(5.4 6.5 0.28)
(4.95 6.55 0.28)
(4.95 6.5 0.28)
(4.95 6.55 0.25)
(4.95 6.5 0.25)
(5.4 6.15 0.25)
(5.4 6.15 0.28)
(5.4 6.1 0.25)
(5.4 6.1 0.28)
(4.95 6.1 0.28)
(4.95 6.1 0.25)
(4.95 6.15 0.28)
(4.95 6.15 0.25)
(3.25 6.07 0.25)
(3.25 6.07 0.28)
(3.25 6.02 0.25)
(3.25 6.02 0.28)
(2.85 6.02 0.28)
(2.85 6.07 0.28)
(2.85 6.07 0.25)
(2.95 6.04 1.01)
(2.95 6.06 1.01)
(3 6.04 1.01)
(3 6.06 1.01)
(2.85 6.02 0.25)
(3.25 6.7 0.25)
(3.25 6.7 0.28)
(3.25 6.65 0.25)
(3.25 6.65 0.28)
(2.85 6.65 0.28)
(2.85 6.7 0.28)
(2.85 6.7 0.25)
(3 6.68 1.01)
(2.95 6.68 1.01)
(3 6.66 1.01)
(2.95 6.66 1.01)
(2.85 6.65 0.25)
(3.25 6.06 0.97)
(3.25 6.06 1.01)
(2.85 6.06 0.97)
(2.85 6.06 1.01)
(3.2 6.12 0.9)
(2.9 6.12 0.9)
(2.85 6.66 0.97)
(3.25 6.66 0.97)
(3.2 6.6 0.9)
(3.25 6.66 1.01)
(2.85 6.66 1.01)
(2.9 6.6 0.9)
(3.4 6.55 1.14)
(3.4 6.1 1.14)
(3.43 6.55 1.14)
(3.43 6.1 1.14)
(3.43 6.55 0.69)
(3.43 6.1 0.69)
(2.95 6.1 0.69)
(2.95 6.55 0.69)
(2.95 6.1 0.72)
(2.95 6.55 0.72)
(3.4 6.55 0.25)
(3.4 6.55 0.28)
(3.4 6.5 0.25)
(3.4 6.5 0.28)
(2.95 6.55 0.28)
(2.95 6.5 0.28)
(2.95 6.55 0.25)
(2.95 6.5 0.25)
(3.4 6.15 0.25)
(3.4 6.15 0.28)
(3.4 6.1 0.25)
(3.4 6.1 0.28)
(2.95 6.1 0.28)
(2.95 6.1 0.25)
(2.95 6.15 0.28)
(2.95 6.15 0.25)
(4.25 6.07 0.25)
(4.25 6.07 0.28)
(4.25 6.02 0.25)
(4.25 6.02 0.28)
(3.85 6.02 0.28)
(3.85 6.07 0.28)
(3.85 6.07 0.25)
(3.95 6.04 1.01)
(3.95 6.06 1.01)
(4 6.04 1.01)
(4 6.06 1.01)
(3.85 6.02 0.25)
(4.25 6.7 0.25)
(4.25 6.7 0.28)
(4.25 6.65 0.25)
(4.25 6.65 0.28)
(3.85 6.65 0.28)
(3.85 6.7 0.28)
(3.85 6.7 0.25)
(4 6.68 1.01)
(3.95 6.68 1.01)
(4 6.66 1.01)
(3.95 6.66 1.01)
(3.85 6.65 0.25)
(4.25 6.06 0.97)
(4.25 6.06 1.01)
(3.85 6.06 0.97)
(3.85 6.06 1.01)
(4.2 6.12 0.9)
(3.9 6.12 0.9)
(3.85 6.66 0.97)
(4.25 6.66 0.97)
(4.2 6.6 0.9)
(4.25 6.66 1.01)
(3.85 6.66 1.01)
(3.9 6.6 0.9)
(4.4 6.55 1.14)
(4.4 6.1 1.14)
(4.43 6.55 1.14)
(4.43 6.1 1.14)
(4.43 6.55 0.69)
(4.43 6.1 0.69)
(3.95 6.1 0.69)
(3.95 6.55 0.69)
(3.95 6.1 0.72)
(3.95 6.55 0.72)
(4.4 6.55 0.25)
(4.4 6.55 0.28)
(4.4 6.5 0.25)
(4.4 6.5 0.28)
(3.95 6.55 0.28)
(3.95 6.5 0.28)
(3.95 6.55 0.25)
(3.95 6.5 0.25)
(4.4 6.15 0.25)
(4.4 6.15 0.28)
(4.4 6.1 0.25)
(4.4 6.1 0.28)
(3.95 6.1 0.28)
(3.95 6.1 0.25)
(3.95 6.15 0.28)
(3.95 6.15 0.25)
(1.25 6.07 0.25)
(1.25 6.07 0.28)
(1.25 6.02 0.25)
(1.25 6.02 0.28)
(0.85 6.02 0.28)
(0.85 6.07 0.28)
(0.85 6.07 0.25)
(0.95 6.04 1.01)
(0.95 6.06 1.01)
(1 6.04 1.01)
(1 6.06 1.01)
(0.85 6.02 0.25)
(1.25 6.7 0.25)
(1.25 6.7 0.28)
(1.25 6.65 0.25)
(1.25 6.65 0.28)
(0.85 6.65 0.28)
(0.85 6.7 0.28)
(0.85 6.7 0.25)
(1 6.68 1.01)
(0.95 6.68 1.01)
(1 6.66 1.01)
(0.95 6.66 1.01)
(0.85 6.65 0.25)
(1.25 6.06 0.97)
(1.25 6.06 1.01)
(0.85 6.06 0.97)
(0.85 6.06 1.01)
(1.2 6.12 0.9)
(0.9 6.12 0.9)
(0.85 6.66 0.97)
(1.25 6.66 0.97)
(1.2 6.6 0.9)
(1.25 6.66 1.01)
(0.85 6.66 1.01)
(0.9 6.6 0.9)
(1.4 6.55 1.14)
(1.4 6.1 1.14)
(1.43 6.55 1.14)
(1.43 6.1 1.14)
(1.43 6.55 0.69)
(1.43 6.1 0.69)
(0.95 6.1 0.69)
(0.95 6.55 0.69)
(0.95 6.1 0.72)
(0.95 6.55 0.72)
(1.4 6.55 0.25)
(1.4 6.55 0.28)
(1.4 6.5 0.25)
(1.4 6.5 0.28)
(0.95 6.55 0.28)
(0.95 6.5 0.28)
(0.95 6.55 0.25)
(0.95 6.5 0.25)
(1.4 6.15 0.25)
(1.4 6.15 0.28)
(1.4 6.1 0.25)
(1.4 6.1 0.28)
(0.95 6.1 0.28)
(0.95 6.1 0.25)
(0.95 6.15 0.28)
(0.95 6.15 0.25)
(2.25 7.32 0.25)
(2.25 7.32 0.28)
(2.25 7.27 0.25)
(2.25 7.27 0.28)
(1.85 7.27 0.28)
(1.85 7.32 0.28)
(1.85 7.32 0.25)
(1.95 7.29 1.01)
(1.95 7.31 1.01)
(2 7.29 1.01)
(2 7.31 1.01)
(1.85 7.27 0.25)
(2.25 7.95 0.25)
(2.25 7.95 0.28)
(2.25 7.9 0.25)
(2.25 7.9 0.28)
(1.85 7.9 0.28)
(1.85 7.95 0.28)
(1.85 7.95 0.25)
(2 7.93 1.01)
(1.95 7.93 1.01)
(2 7.91 1.01)
(1.95 7.91 1.01)
(1.85 7.9 0.25)
(2.25 7.31 0.97)
(2.25 7.31 1.01)
(1.85 7.31 0.97)
(1.85 7.31 1.01)
(2.2 7.37 0.9)
(1.9 7.37 0.9)
(1.85 7.91 0.97)
(2.25 7.91 0.97)
(2.2 7.85 0.9)
(2.25 7.91 1.01)
(1.85 7.91 1.01)
(1.9 7.85 0.9)
(2.4 7.8 1.14)
(2.4 7.35 1.14)
(2.43 7.8 1.14)
(2.43 7.35 1.14)
(2.43 7.8 0.69)
(2.43 7.35 0.69)
(1.95 7.35 0.69)
(1.95 7.8 0.69)
(1.95 7.35 0.72)
(1.95 7.8 0.72)
(2.4 7.8 0.25)
(2.4 7.8 0.28)
(2.4 7.75 0.25)
(2.4 7.75 0.28)
(1.95 7.8 0.28)
(1.95 7.75 0.28)
(1.95 7.8 0.25)
(1.95 7.75 0.25)
(2.4 7.4 0.25)
(2.4 7.4 0.28)
(2.4 7.35 0.25)
(2.4 7.35 0.28)
(1.95 7.35 0.28)
(1.95 7.35 0.25)
(1.95 7.4 0.28)
(1.95 7.4 0.25)
(5.25 7.32 0.25)
(5.25 7.32 0.28)
(5.25 7.27 0.25)
(5.25 7.27 0.28)
(4.85 7.27 0.28)
(4.85 7.32 0.28)
(4.85 7.32 0.25)
(4.95 7.29 1.01)
(4.95 7.31 1.01)
(5 7.29 1.01)
(5 7.31 1.01)
(4.85 7.27 0.25)
(5.25 7.95 0.25)
(5.25 7.95 0.28)
(5.25 7.9 0.25)
(5.25 7.9 0.28)
(4.85 7.9 0.28)
(4.85 7.95 0.28)
(4.85 7.95 0.25)
(5 7.93 1.01)
(4.95 7.93 1.01)
(5 7.91 1.01)
(4.95 7.91 1.01)
(4.85 7.9 0.25)
(5.25 7.31 0.97)
(5.25 7.31 1.01)
(4.85 7.31 0.97)
(4.85 7.31 1.01)
(5.2 7.37 0.9)
(4.9 7.37 0.9)
(4.85 7.91 0.97)
(5.25 7.91 0.97)
(5.2 7.85 0.9)
(5.25 7.91 1.01)
(4.85 7.91 1.01)
(4.9 7.85 0.9)
(5.4 7.8 1.14)
(5.4 7.35 1.14)
(5.43 7.8 1.14)
(5.43 7.35 1.14)
(5.43 7.8 0.69)
(5.43 7.35 0.69)
(4.95 7.35 0.69)
(4.95 7.8 0.69)
(4.95 7.35 0.72)
(4.95 7.8 0.72)
(5.4 7.8 0.25)
(5.4 7.8 0.28)
(5.4 7.75 0.25)
(5.4 7.75 0.28)
(4.95 7.8 0.28)
(4.95 7.75 0.28)
(4.95 7.8 0.25)
(4.95 7.75 0.25)
(5.4 7.4 0.25)
(5.4 7.4 0.28)
(5.4 7.35 0.25)
(5.4 7.35 0.28)
(4.95 7.35 0.28)
(4.95 7.35 0.25)
(4.95 7.4 0.28)
(4.95 7.4 0.25)
(3.25 7.32 0.25)
(3.25 7.32 0.28)
(3.25 7.27 0.25)
(3.25 7.27 0.28)
(2.85 7.27 0.28)
(2.85 7.32 0.28)
(2.85 7.32 0.25)
(2.95 7.29 1.01)
(2.95 7.31 1.01)
(3 7.29 1.01)
(3 7.31 1.01)
(2.85 7.27 0.25)
(3.25 7.95 0.25)
(3.25 7.95 0.28)
(3.25 7.9 0.25)
(3.25 7.9 0.28)
(2.85 7.9 0.28)
(2.85 7.95 0.28)
(2.85 7.95 0.25)
(3 7.93 1.01)
(2.95 7.93 1.01)
(3 7.91 1.01)
(2.95 7.91 1.01)
(2.85 7.9 0.25)
(3.25 7.31 0.97)
(3.25 7.31 1.01)
(2.85 7.31 0.97)
(2.85 7.31 1.01)
(3.2 7.37 0.9)
(2.9 7.37 0.9)
(2.85 7.91 0.97)
(3.25 7.91 0.97)
(3.2 7.85 0.9)
(3.25 7.91 1.01)
(2.85 7.91 1.01)
(2.9 7.85 0.9)
(3.4 7.8 1.14)
(3.4 7.35 1.14)
(3.43 7.8 1.14)
(3.43 7.35 1.14)
(3.43 7.8 0.69)
(3.43 7.35 0.69)
(2.95 7.35 0.69)
(2.95 7.8 0.69)
(2.95 7.35 0.72)
(2.95 7.8 0.72)
(3.4 7.8 0.25)
(3.4 7.8 0.28)
(3.4 7.75 0.25)
(3.4 7.75 0.28)
(2.95 7.8 0.28)
(2.95 7.75 0.28)
(2.95 7.8 0.25)
(2.95 7.75 0.25)
(3.4 7.4 0.25)
(3.4 7.4 0.28)
(3.4 7.35 0.25)
(3.4 7.35 0.28)
(2.95 7.35 0.28)
(2.95 7.35 0.25)
(2.95 7.4 0.28)
(2.95 7.4 0.25)
(4.25 7.32 0.25)
(4.25 7.32 0.28)
(4.25 7.27 0.25)
(4.25 7.27 0.28)
(3.85 7.27 0.28)
(3.85 7.32 0.28)
(3.85 7.32 0.25)
(3.95 7.29 1.01)
(3.95 7.31 1.01)
(4 7.29 1.01)
(4 7.31 1.01)
(3.85 7.27 0.25)
(4.25 7.95 0.25)
(4.25 7.95 0.28)
(4.25 7.9 0.25)
(4.25 7.9 0.28)
(3.85 7.9 0.28)
(3.85 7.95 0.28)
(3.85 7.95 0.25)
(4 7.93 1.01)
(3.95 7.93 1.01)
(4 7.91 1.01)
(3.95 7.91 1.01)
(3.85 7.9 0.25)
(4.25 7.31 0.97)
(4.25 7.31 1.01)
(3.85 7.31 0.97)
(3.85 7.31 1.01)
(4.2 7.37 0.9)
(3.9 7.37 0.9)
(3.85 7.91 0.97)
(4.25 7.91 0.97)
(4.2 7.85 0.9)
(4.25 7.91 1.01)
(3.85 7.91 1.01)
(3.9 7.85 0.9)
(4.4 7.8 1.14)
(4.4 7.35 1.14)
(4.43 7.8 1.14)
(4.43 7.35 1.14)
(4.43 7.8 0.69)
(4.43 7.35 0.69)
(3.95 7.35 0.69)
(3.95 7.8 0.69)
(3.95 7.35 0.72)
(3.95 7.8 0.72)
(4.4 7.8 0.25)
(4.4 7.8 0.28)
(4.4 7.75 0.25)
(4.4 7.75 0.28)
(3.95 7.8 0.28)
(3.95 7.75 0.28)
(3.95 7.8 0.25)
(3.95 7.75 0.25)
(4.4 7.4 0.25)
(4.4 7.4 0.28)
(4.4 7.35 0.25)
(4.4 7.35 0.28)
(3.95 7.35 0.28)
(3.95 7.35 0.25)
(3.95 7.4 0.28)
(3.95 7.4 0.25)
(1.25 7.32 0.25)
(1.25 7.32 0.28)
(1.25 7.27 0.25)
(1.25 7.27 0.28)
(0.85 7.27 0.28)
(0.85 7.32 0.28)
(0.85 7.32 0.25)
(0.95 7.29 1.01)
(0.95 7.31 1.01)
(1 7.29 1.01)
(1 7.31 1.01)
(0.85 7.27 0.25)
(1.25 7.95 0.25)
(1.25 7.95 0.28)
(1.25 7.9 0.25)
(1.25 7.9 0.28)
(0.85 7.9 0.28)
(0.85 7.95 0.28)
(0.85 7.95 0.25)
(1 7.93 1.01)
(0.95 7.93 1.01)
(1 7.91 1.01)
(0.95 7.91 1.01)
(0.85 7.9 0.25)
(1.25 7.31 0.97)
(1.25 7.31 1.01)
(0.85 7.31 0.97)
(0.85 7.31 1.01)
(1.2 7.37 0.9)
(0.9 7.37 0.9)
(0.85 7.91 0.97)
(1.25 7.91 0.97)
(1.2 7.85 0.9)
(1.25 7.91 1.01)
(0.85 7.91 1.01)
(0.9 7.85 0.9)
(1.4 7.8 1.14)
(1.4 7.35 1.14)
(1.43 7.8 1.14)
(1.43 7.35 1.14)
(1.43 7.8 0.69)
(1.43 7.35 0.69)
(0.95 7.35 0.69)
(0.95 7.8 0.69)
(0.95 7.35 0.72)
(0.95 7.8 0.72)
(1.4 7.8 0.25)
(1.4 7.8 0.28)
(1.4 7.75 0.25)
(1.4 7.75 0.28)
(0.95 7.8 0.28)
(0.95 7.75 0.28)
(0.95 7.8 0.25)
(0.95 7.75 0.25)
(1.4 7.4 0.25)
(1.4 7.4 0.28)
(1.4 7.35 0.25)
(1.4 7.35 0.28)
(0.95 7.35 0.28)
(0.95 7.35 0.25)
(0.95 7.4 0.28)
(0.95 7.4 0.25)
(3.25 4.82 0.25)
(3.25 4.82 0.28)
(3.25 4.77 0.25)
(3.25 4.77 0.28)
(2.85 4.77 0.28)
(2.85 4.82 0.28)
(2.85 4.82 0.25)
(2.95 4.79 1.01)
(2.95 4.81 1.01)
(3 4.79 1.01)
(3 4.81 1.01)
(2.85 4.77 0.25)
(3.25 5.45 0.25)
(3.25 5.45 0.28)
(3.25 5.4 0.25)
(3.25 5.4 0.28)
(2.85 5.4 0.28)
(2.85 5.45 0.28)
(2.85 5.45 0.25)
(3 5.43 1.01)
(2.95 5.43 1.01)
(3 5.41 1.01)
(2.95 5.41 1.01)
(2.85 5.4 0.25)
(3.25 4.81 0.97)
(3.25 4.81 1.01)
(2.85 4.81 0.97)
(2.85 4.81 1.01)
(3.2 4.87 0.9)
(2.9 4.87 0.9)
(2.85 5.41 0.97)