/*--------------------------------*- C++ -*----------------------------------*\
  =========                 |
  \\      /  F ield         | OpenFOAM: The Open Source CFD Toolbox
   \\    /   O peration     | Website:  https://openfoam.org
    \\  /    A nd           | Version:  12
     \\/     M anipulation  |
\*---------------------------------------------------------------------------*/
FoamFile
{
    format      ascii;
    class       featureEdgeMesh;
    location    "constant/triSurface";
    object      Volume.eMesh;
}
// * * * * * * * * * * * * * * * * * * * * * * * * * * * * * * * * * * * * * //


// points:

6692
(
(1.005 1.021 0.48)
(0.81 0.776 0.855)
(1.005 0.796 0.48)
(1.005 2.521 0.48)
(0.81 2.276 0.855)
(1.005 2.296 0.48)
(1.005 4.021 0.48)
(0.81 3.776 0.855)
(1.005 3.796 0.48)
(1.005 5.521 0.48)
(0.81 5.276 0.855)
(1.005 5.296 0.48)
(1.005 7.021 0.48)
(0.81 6.776 0.855)
(1.005 6.796 0.48)
(2.005 1.021 0.48)
(1.81 0.776 0.855)
(2.005 0.796 0.48)
(2.005 7.021 0.48)
(1.81 6.776 0.855)
(2.005 6.796 0.48)
(2.005 2.521 0.48)
(1.81 2.276 0.855)
(2.005 2.296 0.48)
(2.005 5.521 0.48)
(1.81 5.276 0.855)
(2.005 5.296 0.48)
(2.005 4.021 0.48)
(1.81 3.776 0.855)
(2.005 3.796 0.48)
(3.005 4.021 0.48)
(2.81 3.776 0.855)
(3.005 3.796 0.48)
(3.005 7.021 0.48)
(2.81 6.776 0.855)
(3.005 6.796 0.48)
(3.005 2.521 0.48)
(2.81 2.276 0.855)
(3.005 2.296 0.48)
(3.005 1.021 0.48)
(2.81 0.776 0.855)
(3.005 0.796 0.48)
(3.005 5.521 0.48)
(2.81 5.276 0.855)
(3.005 5.296 0.48)
(4.005 4.021 0.48)
(3.81 3.776 0.855)
(4.005 3.796 0.48)
(4.005 7.021 0.48)
(3.81 6.776 0.855)
(4.005 6.796 0.48)
(4.005 2.521 0.48)
(3.81 2.276 0.855)
(4.005 2.296 0.48)
(4.005 1.021 0.48)
(3.81 0.776 0.855)
(4.005 0.796 0.48)
(4.005 5.521 0.48)
(3.81 5.276 0.855)
(4.005 5.296 0.48)
(5.005 5.521 0.48)
(4.81 5.276 0.855)
(5.005 5.296 0.48)
(5.005 4.021 0.48)
(4.81 3.776 0.855)
(5.005 3.796 0.48)
(5.005 7.021 0.48)
(4.81 6.776 0.855)
(5.005 6.796 0.48)
(5.005 2.521 0.48)
(4.81 2.276 0.855)
(5.005 2.296 0.48)
(5.005 1.021 0.48)
(4.81 0.776 0.855)
(5.005 0.796 0.48)
(1.6 1.2 0.85)
(1.1 1.2 0.85)
(1.6 1.2 0.87)
(1.1 1.2 0.87)
(1.6 0.6 0.85)
(1.6 0.6 0.87)
(1.1 0.6 0.85)
(1.1 0.6 0.87)
(1.6 0.621 0.1)
(1.58 0.621 0.1)
(1.6 0.621 0.85)
(1.58 0.621 0.85)
(1.6 0.601 0.1)
(1.6 0.601 0.85)
(1.58 0.601 0.1)
(1.58 0.601 0.85)
(1.6 1.201 0.1)
(1.58 1.201 0.1)
(1.6 1.201 0.85)
(1.58 1.201 0.85)
(1.6 1.181 0.1)
(1.6 1.181 0.85)
(1.58 1.181 0.1)
(1.58 1.181 0.85)
(1.25 1.075 0.5)
(0.9 1.075 0.5)
(1.25 1.075 0.52)
(0.9 1.075 0.52)
(1.25 0.725 0.5)
(1.25 0.725 0.52)
(0.9 0.725 0.5)
(0.9 0.725 0.52)
(1 0.601 0.35)
(1.02 0.601 0.35)
(1 0.604761 0.383378)
(1.02 0.604761 0.383378)
(1 0.615855 0.415083)
(1.02 0.615855 0.415083)
(1 0.633725 0.443523)
(1.02 0.633725 0.443523)
(1 0.657476 0.467275)
(1.02 0.657476 0.467275)
(1 0.685917 0.485145)
(1.02 0.685917 0.485145)
(1 0.717622 0.496239)
(1.02 0.717622 0.496239)
(1 0.751 0.5)
(1.02 0.751 0.5)
(1 1.051 0.5)
(1.02 1.051 0.5)
(1.02 0.737622 0.476239)
(1.02 0.771 0.48)
(1.02 1.031 0.48)
(1.02 1.06438 0.476239)
(1.02 0.705917 0.465145)
(1.02 0.677477 0.447275)
(1.02 0.653725 0.423523)
(1.02 0.635855 0.395083)
(1.02 0.624761 0.363378)
(1.02 0.621 0.33)
(1.02 0.601 0.1)
(1.02 0.621 0.1)
(1.02 1.08438 0.496239)
(1.02 1.09608 0.465145)
(1.02 1.11608 0.485145)
(1.02 1.14452 0.467275)
(1.02 1.12452 0.447275)
(1.02 1.16827 0.443523)
(1.02 1.14828 0.423523)
(1.02 1.18614 0.415083)
(1.02 1.16614 0.395083)
(1.02 1.19724 0.383378)
(1.02 1.17724 0.363378)
(1.02 1.201 0.35)
(1.02 1.181 0.33)
(1.02 1.201 0.1)
(1.02 1.181 0.1)
(1 1.201 0.35)
(1 1.19724 0.383378)
(1 1.18614 0.415083)
(1 1.16827 0.443523)
(1 1.14452 0.467275)
(1 1.11608 0.485145)
(1 1.08438 0.496239)
(1 0.621 0.33)
(1 0.624761 0.363378)
(1 0.635855 0.395083)
(1 0.653725 0.423523)
(1 0.677477 0.447275)
(1 0.705917 0.465145)
(1 0.737622 0.476239)
(1 0.771 0.48)
(1 1.031 0.48)
(1 1.06438 0.476239)
(1 1.09608 0.465145)
(1 1.12452 0.447275)
(1 1.14828 0.423523)
(1 1.16614 0.395083)
(1 1.17724 0.363378)
(1 1.181 0.33)
(1 1.181 0.1)
(1 0.621 0.1)
(1 0.601 0.1)
(1 1.201 0.1)
(0.91 1.021 0.48)
(0.91 1.001 0.48)
(0.884118 1.021 0.483407)
(0.884118 1.001 0.483407)
(0.86 1.021 0.493398)
(0.86 1.001 0.493398)
(0.839289 1.021 0.509289)
(0.839289 1.001 0.509289)
(0.823398 1.021 0.53)
(0.823398 1.001 0.53)
(0.813407 1.021 0.554118)
(0.813407 1.001 0.554118)
(0.81 1.021 0.58)
(0.81 1.001 0.58)
(0.81 1.001 0.855)
(0.81 1.021 0.855)
(0.83 1.001 0.575)
(0.83 1.001 0.855)
(0.832556 1.001 0.555589)
(0.840048 1.001 0.5375)
(0.851967 1.001 0.521967)
(0.8675 1.001 0.510048)
(0.885589 1.001 0.502556)
(0.905 1.001 0.5)
(1.005 1.001 0.5)
(1.005 1.001 0.48)
(0.905 1.021 0.5)
(0.885589 1.021 0.502556)
(0.8675 1.021 0.510048)
(0.851967 1.021 0.521967)
(0.840048 1.021 0.5375)
(0.832556 1.021 0.555589)
(0.83 1.021 0.575)
(0.83 1.021 0.855)
(1.005 1.021 0.5)
(0.91 0.796 0.48)
(0.91 0.776 0.48)
(0.884118 0.796 0.483407)
(0.884118 0.776 0.483407)
(0.86 0.796 0.493398)
(0.86 0.776 0.493398)
(0.839289 0.796 0.509289)
(0.839289 0.776 0.509289)
(0.823398 0.796 0.53)
(0.823398 0.776 0.53)
(0.813407 0.796 0.554118)
(0.813407 0.776 0.554118)
(0.81 0.796 0.58)
(0.81 0.776 0.58)
(0.83 0.776 0.575)
(0.83 0.776 0.855)
(0.832556 0.776 0.555589)
(0.840048 0.776 0.5375)
(0.851967 0.776 0.521967)
(0.8675 0.776 0.510048)
(0.885589 0.776 0.502556)
(0.905 0.776 0.5)
(1.005 0.776 0.5)
(1.005 0.776 0.48)
(0.905 0.796 0.5)
(0.885589 0.796 0.502556)
(0.8675 0.796 0.510048)
(0.851967 0.796 0.521967)
(0.840048 0.796 0.5375)
(0.832556 0.796 0.555589)
(0.83 0.796 0.575)
(0.83 0.796 0.855)
(1.005 0.796 0.5)
(0.81 0.796 0.855)
(0.85 1.055 0.77)
(0.83 1.055 0.77)
(0.85 1.06018 0.770682)
(0.83 1.06018 0.770682)
(0.85 1.065 0.77268)
(0.83 1.065 0.77268)
(0.85 1.06914 0.775858)
(0.83 1.06914 0.775858)
(0.85 1.07232 0.78)
(0.83 1.07232 0.78)
(0.85 1.07432 0.784824)
(0.83 1.07432 0.784824)
(0.85 1.075 0.79)
(0.83 1.075 0.79)
(0.85 0.745 0.77)
(0.83 0.745 0.77)
(0.85 0.725 0.79)
(0.85 0.725681 0.784824)
(0.85 1.075 0.925)
(0.85 0.725 0.925)
(0.85 0.745 0.945)
(0.85 0.725681 0.930176)
(0.85 0.727679 0.935)
(0.85 0.730858 0.939142)
(0.85 0.735 0.942321)
(0.85 0.739824 0.944318)
(0.85 1.055 0.945)
(0.85 1.07432 0.930176)
(0.85 1.07232 0.935)
(0.85 1.06914 0.939142)
(0.85 1.065 0.942321)
(0.85 1.06018 0.944318)
(0.85 0.727679 0.78)
(0.85 0.730858 0.775858)
(0.85 0.735 0.77268)
(0.85 0.739824 0.770682)
(0.83 0.725 0.79)
(0.83 0.725681 0.784824)
(0.83 0.727679 0.78)
(0.83 0.730858 0.775858)
(0.83 0.735 0.77268)
(0.83 0.739824 0.770682)
(0.83 0.725 0.925)
(0.83 1.075 0.925)
(0.83 1.07432 0.930176)
(0.83 1.07232 0.935)
(0.83 1.06914 0.939142)
(0.83 1.065 0.942321)
(0.83 1.06018 0.944318)
(0.83 1.055 0.945)
(0.83 0.745 0.945)
(0.83 0.739824 0.944318)
(0.83 0.735 0.942321)
(0.83 0.730858 0.939142)
(0.83 0.727679 0.935)
(0.83 0.725681 0.930176)
(1.58 0.621 0.345)
(1.58 0.621 0.325)
(1.02 0.621 0.345)
(1.02 0.621 0.325)
(1.58 0.601 0.345)
(1.02 0.601 0.345)
(1.58 0.601 0.325)
(1.02 0.601 0.325)
(1.58 1.201 0.345)
(1.58 1.201 0.325)
(1.02 1.201 0.345)
(1.02 1.201 0.325)
(1.58 1.181 0.345)
(1.02 1.181 0.345)
(1.58 1.181 0.325)
(1.02 1.181 0.325)
(1.6 2.7 0.85)
(1.1 2.7 0.85)
(1.6 2.7 0.87)
(1.1 2.7 0.87)
(1.6 2.1 0.85)
(1.6 2.1 0.87)
(1.1 2.1 0.85)
(1.1 2.1 0.87)
(1.6 2.121 0.1)
(1.58 2.121 0.1)
(1.6 2.121 0.85)
(1.58 2.121 0.85)
(1.6 2.101 0.1)
(1.6 2.101 0.85)
(1.58 2.101 0.1)
(1.58 2.101 0.85)
(1.6 2.701 0.1)
(1.58 2.701 0.1)
(1.6 2.701 0.85)
(1.58 2.701 0.85)
(1.6 2.681 0.1)
(1.6 2.681 0.85)
(1.58 2.681 0.1)
(1.58 2.681 0.85)
(1.25 2.575 0.5)
(0.9 2.575 0.5)
(1.25 2.575 0.52)
(0.9 2.575 0.52)
(1.25 2.225 0.5)
(1.25 2.225 0.52)
(0.9 2.225 0.5)
(0.9 2.225 0.52)
(1 2.101 0.35)
(1.02 2.101 0.35)
(1 2.10476 0.383378)
(1.02 2.10476 0.383378)
(1 2.11585 0.415083)
(1.02 2.11585 0.415083)
(1 2.13372 0.443523)
(1.02 2.13372 0.443523)
(1 2.15748 0.467275)
(1.02 2.15748 0.467275)
(1 2.18592 0.485145)
(1.02 2.18592 0.485145)
(1 2.21762 0.496239)
(1.02 2.21762 0.496239)
(1 2.251 0.5)
(1.02 2.251 0.5)
(1 2.551 0.5)
(1.02 2.551 0.5)
(1.02 2.23762 0.476239)
(1.02 2.271 0.48)
(1.02 2.531 0.48)
(1.02 2.56438 0.476239)
(1.02 2.20592 0.465145)
(1.02 2.17748 0.447275)
(1.02 2.15372 0.423523)
(1.02 2.13585 0.395083)
(1.02 2.12476 0.363378)
(1.02 2.121 0.33)
(1.02 2.101 0.1)
(1.02 2.121 0.1)
(1.02 2.58438 0.496239)
(1.02 2.59608 0.465145)
(1.02 2.61608 0.485145)
(1.02 2.64452 0.467275)
(1.02 2.62452 0.447275)
(1.02 2.66828 0.443523)
(1.02 2.64827 0.423523)
(1.02 2.68615 0.415083)
(1.02 2.66615 0.395083)
(1.02 2.69724 0.383378)
(1.02 2.67724 0.363378)
(1.02 2.701 0.35)
(1.02 2.681 0.33)
(1.02 2.701 0.1)
(1.02 2.681 0.1)
(1 2.701 0.35)
(1 2.69724 0.383378)
(1 2.68615 0.415083)
(1 2.66828 0.443523)
(1 2.64452 0.467275)
(1 2.61608 0.485145)
(1 2.58438 0.496239)
(1 2.121 0.33)
(1 2.12476 0.363378)
(1 2.13585 0.395083)
(1 2.15372 0.423523)
(1 2.17748 0.447275)
(1 2.20592 0.465145)
(1 2.23762 0.476239)
(1 2.271 0.48)
(1 2.531 0.48)
(1 2.56438 0.476239)
(1 2.59608 0.465145)
(1 2.62452 0.447275)
(1 2.64827 0.423523)
(1 2.66615 0.395083)
(1 2.67724 0.363378)
(1 2.681 0.33)
(1 2.681 0.1)
(1 2.121 0.1)
(1 2.101 0.1)
(1 2.701 0.1)
(0.91 2.521 0.48)
(0.91 2.501 0.48)
(0.884118 2.521 0.483407)
(0.884118 2.501 0.483407)
(0.86 2.521 0.493398)
(0.86 2.501 0.493398)
(0.839289 2.521 0.509289)
(0.839289 2.501 0.509289)
(0.823398 2.521 0.53)
(0.823398 2.501 0.53)
(0.813407 2.521 0.554118)
(0.813407 2.501 0.554118)
(0.81 2.521 0.58)
(0.81 2.501 0.58)
(0.81 2.501 0.855)
(0.81 2.521 0.855)
(0.83 2.501 0.575)
(0.83 2.501 0.855)
(0.832556 2.501 0.555589)
(0.840048 2.501 0.5375)
(0.851967 2.501 0.521967)
(0.8675 2.501 0.510048)
(0.885589 2.501 0.502556)
(0.905 2.501 0.5)
(1.005 2.501 0.5)
(1.005 2.501 0.48)
(0.905 2.521 0.5)
(0.885589 2.521 0.502556)
(0.8675 2.521 0.510048)
(0.851967 2.521 0.521967)
(0.840048 2.521 0.5375)
(0.832556 2.521 0.555589)
(0.83 2.521 0.575)
(0.83 2.521 0.855)
(1.005 2.521 0.5)
(0.91 2.296 0.48)
(0.91 2.276 0.48)
(0.884118 2.296 0.483407)
(0.884118 2.276 0.483407)
(0.86 2.296 0.493398)
(0.86 2.276 0.493398)
(0.839289 2.296 0.509289)
(0.839289 2.276 0.509289)
(0.823398 2.296 0.53)
(0.823398 2.276 0.53)
(0.813407 2.296 0.554118)
(0.813407 2.276 0.554118)
(0.81 2.296 0.58)
(0.81 2.276 0.58)
(0.83 2.276 0.575)
(0.83 2.276 0.855)
(0.832556 2.276 0.555589)
(0.840048 2.276 0.5375)
(0.851967 2.276 0.521967)
(0.8675 2.276 0.510048)
(0.885589 2.276 0.502556)
(0.905 2.276 0.5)
(1.005 2.276 0.5)
(1.005 2.276 0.48)
(0.905 2.296 0.5)
(0.885589 2.296 0.502556)
(0.8675 2.296 0.510048)
(0.851967 2.296 0.521967)
(0.840048 2.296 0.5375)
(0.832556 2.296 0.555589)
(0.83 2.296 0.575)
(0.83 2.296 0.855)
(1.005 2.296 0.5)
(0.81 2.296 0.855)
(0.85 2.555 0.77)
(0.83 2.555 0.77)
(0.85 2.56018 0.770682)
(0.83 2.56018 0.770682)
(0.85 2.565 0.77268)
(0.83 2.565 0.77268)
(0.85 2.56914 0.775858)
(0.83 2.56914 0.775858)
(0.85 2.57232 0.78)
(0.83 2.57232 0.78)
(0.85 2.57432 0.784824)
(0.83 2.57432 0.784824)
(0.85 2.575 0.79)
(0.83 2.575 0.79)
(0.85 2.245 0.77)
(0.83 2.245 0.77)
(0.85 2.225 0.79)
(0.85 2.22568 0.784824)
(0.85 2.575 0.925)
(0.85 2.225 0.925)
(0.85 2.245 0.945)
(0.85 2.22568 0.930176)
(0.85 2.22768 0.935)
(0.85 2.23086 0.939142)
(0.85 2.235 0.942321)
(0.85 2.23982 0.944318)
(0.85 2.555 0.945)
(0.85 2.57432 0.930176)
(0.85 2.57232 0.935)
(0.85 2.56914 0.939142)
(0.85 2.565 0.942321)
(0.85 2.56018 0.944318)
(0.85 2.22768 0.78)
(0.85 2.23086 0.775858)
(0.85 2.235 0.77268)
(0.85 2.23982 0.770682)
(0.83 2.225 0.79)
(0.83 2.22568 0.784824)
(0.83 2.22768 0.78)
(0.83 2.23086 0.775858)
(0.83 2.235 0.77268)
(0.83 2.23982 0.770682)
(0.83 2.225 0.925)
(0.83 2.575 0.925)
(0.83 2.57432 0.930176)
(0.83 2.57232 0.935)
(0.83 2.56914 0.939142)
(0.83 2.565 0.942321)
(0.83 2.56018 0.944318)
(0.83 2.555 0.945)
(0.83 2.245 0.945)
(0.83 2.23982 0.944318)
(0.83 2.235 0.942321)
(0.83 2.23086 0.939142)
(0.83 2.22768 0.935)
(0.83 2.22568 0.930176)
(1.58 2.121 0.345)
(1.58 2.121 0.325)
(1.02 2.121 0.345)
(1.02 2.121 0.325)
(1.58 2.101 0.345)
(1.02 2.101 0.345)
(1.58 2.101 0.325)
(1.02 2.101 0.325)
(1.58 2.701 0.345)
(1.58 2.701 0.325)
(1.02 2.701 0.345)
(1.02 2.701 0.325)
(1.58 2.681 0.345)
(1.02 2.681 0.345)
(1.58 2.681 0.325)
(1.02 2.681 0.325)
(1.6 4.2 0.85)
(1.1 4.2 0.85)
(1.6 4.2 0.87)
(1.1 4.2 0.87)
(1.6 3.6 0.85)
(1.6 3.6 0.87)
(1.1 3.6 0.85)
(1.1 3.6 0.87)
(1.6 3.621 0.1)
(1.58 3.621 0.1)
(1.6 3.621 0.85)
(1.58 3.621 0.85)
(1.6 3.601 0.1)
(1.6 3.601 0.85)
(1.58 3.601 0.1)
(1.58 3.601 0.85)
(1.6 4.201 0.1)
(1.58 4.201 0.1)
(1.6 4.201 0.85)
(1.58 4.201 0.85)
(1.6 4.181 0.1)
(1.6 4.181 0.85)
(1.58 4.181 0.1)
(1.58 4.181 0.85)
(1.25 4.075 0.5)
(0.9 4.075 0.5)
(1.25 4.075 0.52)
(0.9 4.075 0.52)
(1.25 3.725 0.5)
(1.25 3.725 0.52)
(0.9 3.725 0.5)
(0.9 3.725 0.52)
(1 3.601 0.35)
(1.02 3.601 0.35)
(1 3.60476 0.383378)
(1.02 3.60476 0.383378)
(1 3.61585 0.415083)
(1.02 3.61585 0.415083)
(1 3.63372 0.443523)
(1.02 3.63372 0.443523)
(1 3.65748 0.467275)
(1.02 3.65748 0.467275)
(1 3.68592 0.485145)
(1.02 3.68592 0.485145)
(1 3.71762 0.496239)
(1.02 3.71762 0.496239)
(1 3.751 0.5)
(1.02 3.751 0.5)
(1 4.051 0.5)
(1.02 4.051 0.5)
(1.02 3.73762 0.476239)
(1.02 3.771 0.48)
(1.02 4.031 0.48)
(1.02 4.06438 0.476239)
(1.02 3.70592 0.465145)
(1.02 3.67748 0.447275)
(1.02 3.65372 0.423523)
(1.02 3.63585 0.395083)
(1.02 3.62476 0.363378)
(1.02 3.621 0.33)
(1.02 3.601 0.1)
(1.02 3.621 0.1)
(1.02 4.08438 0.496239)
(1.02 4.09608 0.465145)
(1.02 4.11608 0.485145)
(1.02 4.14452 0.467275)
(1.02 4.12452 0.447275)
(1.02 4.16827 0.443523)
(1.02 4.14827 0.423523)
(1.02 4.18614 0.415083)
(1.02 4.16614 0.395083)
(1.02 4.19724 0.383378)
(1.02 4.17724 0.363378)
(1.02 4.201 0.35)
(1.02 4.181 0.33)
(1.02 4.201 0.1)
(1.02 4.181 0.1)
(1 4.201 0.35)
(1 4.19724 0.383378)
(1 4.18614 0.415083)
(1 4.16827 0.443523)
(1 4.14452 0.467275)
(1 4.11608 0.485145)
(1 4.08438 0.496239)
(1 3.621 0.33)
(1 3.62476 0.363378)
(1 3.63585 0.395083)
(1 3.65372 0.423523)
(1 3.67748 0.447275)
(1 3.70592 0.465145)
(1 3.73762 0.476239)
(1 3.771 0.48)
(1 4.031 0.48)
(1 4.06438 0.476239)
(1 4.09608 0.465145)
(1 4.12452 0.447275)
(1 4.14827 0.423523)
(1 4.16614 0.395083)
(1 4.17724 0.363378)
(1 4.181 0.33)
(1 4.181 0.1)
(1 3.621 0.1)
(1 3.601 0.1)
(1 4.201 0.1)
(0.91 4.021 0.48)
(0.91 4.001 0.48)
(0.884118 4.021 0.483407)
(0.884118 4.001 0.483407)
(0.86 4.021 0.493398)
(0.86 4.001 0.493398)
(0.839289 4.021 0.509289)
(0.839289 4.001 0.509289)
(0.823398 4.021 0.53)
(0.823398 4.001 0.53)
(0.813407 4.021 0.554118)
(0.813407 4.001 0.554118)
(0.81 4.021 0.58)
(0.81 4.001 0.58)
(0.81 4.001 0.855)
(0.81 4.021 0.855)
(0.83 4.001 0.575)
(0.83 4.001 0.855)
(0.832556 4.001 0.555589)
(0.840048 4.001 0.5375)
(0.851967 4.001 0.521967)
(0.8675 4.001 0.510048)
(0.885589 4.001 0.502556)
(0.905 4.001 0.5)
(1.005 4.001 0.5)
(1.005 4.001 0.48)
(0.905 4.021 0.5)
(0.885589 4.021 0.502556)
(0.8675 4.021 0.510048)
(0.851967 4.021 0.521967)
(0.840048 4.021 0.5375)
(0.832556 4.021 0.555589)
(0.83 4.021 0.575)
(0.83 4.021 0.855)
(1.005 4.021 0.5)
(0.91 3.796 0.48)
(0.91 3.776 0.48)
(0.884118 3.796 0.483407)
(0.884118 3.776 0.483407)
(0.86 3.796 0.493398)
(0.86 3.776 0.493398)
(0.839289 3.796 0.509289)
(0.839289 3.776 0.509289)
(0.823398 3.796 0.53)
(0.823398 3.776 0.53)
(0.813407 3.796 0.554118)
(0.813407 3.776 0.554118)
(0.81 3.796 0.58)
(0.81 3.776 0.58)
(0.83 3.776 0.575)
(0.83 3.776 0.855)
(0.832556 3.776 0.555589)
(0.840048 3.776 0.5375)
(0.851967 3.776 0.521967)
(0.8675 3.776 0.510048)
(0.885589 3.776 0.502556)
(0.905 3.776 0.5)
(1.005 3.776 0.5)
(1.005 3.776 0.48)
(0.905 3.796 0.5)
(0.885589 3.796 0.502556)
(0.8675 3.796 0.510048)
(0.851967 3.796 0.521967)
(0.840048 3.796 0.5375)
(0.832556 3.796 0.555589)
(0.83 3.796 0.575)
(0.83 3.796 0.855)
(1.005 3.796 0.5)
(0.81 3.796 0.855)
(0.85 4.055 0.77)
(0.83 4.055 0.77)
(0.85 4.06018 0.770682)
(0.83 4.06018 0.770682)
(0.85 4.065 0.77268)
(0.83 4.065 0.77268)
(0.85 4.06914 0.775858)
(0.83 4.06914 0.775858)
(0.85 4.07232 0.78)
(0.83 4.07232 0.78)
(0.85 4.07432 0.784824)
(0.83 4.07432 0.784824)
(0.85 4.075 0.79)
(0.83 4.075 0.79)
(0.85 3.745 0.77)
(0.83 3.745 0.77)
(0.85 3.725 0.79)
(0.85 3.72568 0.784824)
(0.85 4.075 0.925)
(0.85 3.725 0.925)
(0.85 3.745 0.945)
(0.85 3.72568 0.930176)
(0.85 3.72768 0.935)
(0.85 3.73086 0.939142)
(0.85 3.735 0.942321)
(0.85 3.73982 0.944318)
(0.85 4.055 0.945)
(0.85 4.07432 0.930176)
(0.85 4.07232 0.935)
(0.85 4.06914 0.939142)
(0.85 4.065 0.942321)
(0.85 4.06018 0.944318)
(0.85 3.72768 0.78)
(0.85 3.73086 0.775858)
(0.85 3.735 0.77268)
(0.85 3.73982 0.770682)
(0.83 3.725 0.79)
(0.83 3.72568 0.784824)
(0.83 3.72768 0.78)
(0.83 3.73086 0.775858)
(0.83 3.735 0.77268)
(0.83 3.73982 0.770682)
(0.83 3.725 0.925)
(0.83 4.075 0.925)
(0.83 4.07432 0.930176)
(0.83 4.07232 0.935)
(0.83 4.06914 0.939142)
(0.83 4.065 0.942321)
(0.83 4.06018 0.944318)
(0.83 4.055 0.945)
(0.83 3.745 0.945)
(0.83 3.73982 0.944318)
(0.83 3.735 0.942321)
(0.83 3.73086 0.939142)
(0.83 3.72768 0.935)
(0.83 3.72568 0.930176)
(1.58 3.621 0.345)
(1.58 3.621 0.325)
(1.02 3.621 0.345)
(1.02 3.621 0.325)
(1.58 3.601 0.345)
(1.02 3.601 0.345)
(1.58 3.601 0.325)
(1.02 3.601 0.325)
(1.58 4.201 0.345)
(1.58 4.201 0.325)
(1.02 4.201 0.345)
(1.02 4.201 0.325)
(1.58 4.181 0.345)
(1.02 4.181 0.345)
(1.58 4.181 0.325)
(1.02 4.181 0.325)
(1.6 5.7 0.85)
(1.1 5.7 0.85)
(1.6 5.7 0.87)
(1.1 5.7 0.87)
(1.6 5.1 0.85)
(1.6 5.1 0.87)
(1.1 5.1 0.85)
(1.1 5.1 0.87)
(1.6 5.121 0.1)
(1.58 5.121 0.1)
(1.6 5.121 0.85)
(1.58 5.121 0.85)
(1.6 5.101 0.1)
(1.6 5.101 0.85)
(1.58 5.101 0.1)
(1.58 5.101 0.85)
(1.6 5.701 0.1)
(1.58 5.701 0.1)
(1.6 5.701 0.85)
(1.58 5.701 0.85)
(1.6 5.681 0.1)
(1.6 5.681 0.85)
(1.58 5.681 0.1)
(1.58 5.681 0.85)
(1.25 5.575 0.5)
(0.9 5.575 0.5)
(1.25 5.575 0.52)
(0.9 5.575 0.52)
(1.25 5.225 0.5)
(1.25 5.225 0.52)
(0.9 5.225 0.5)
(0.9 5.225 0.52)
(1 5.101 0.35)
(1.02 5.101 0.35)
(1 5.10476 0.383378)
(1.02 5.10476 0.383378)
(1 5.11586 0.415083)
(1.02 5.11586 0.415083)
(1 5.13373 0.443523)
(1.02 5.13373 0.443523)
(1 5.15748 0.467275)
(1.02 5.15748 0.467275)
(1 5.18592 0.485145)
(1.02 5.18592 0.485145)
(1 5.21762 0.496239)
(1.02 5.21762 0.496239)
(1 5.251 0.5)
(1.02 5.251 0.5)
(1 5.551 0.5)
(1.02 5.551 0.5)
(1.02 5.23762 0.476239)
(1.02 5.271 0.48)
(1.02 5.531 0.48)
(1.02 5.56438 0.476239)
(1.02 5.20592 0.465145)
(1.02 5.17748 0.447275)
(1.02 5.15373 0.423523)
(1.02 5.13586 0.395083)
(1.02 5.12476 0.363378)
(1.02 5.121 0.33)
(1.02 5.101 0.1)
(1.02 5.121 0.1)
(1.02 5.58438 0.496239)
(1.02 5.59608 0.465145)
(1.02 5.61608 0.485145)
(1.02 5.64452 0.467275)
(1.02 5.62452 0.447275)
(1.02 5.66827 0.443523)
(1.02 5.64827 0.423523)
(1.02 5.68614 0.415083)
(1.02 5.66614 0.395083)
(1.02 5.69724 0.383378)
(1.02 5.67724 0.363378)
(1.02 5.701 0.35)
(1.02 5.681 0.33)
(1.02 5.701 0.1)
(1.02 5.681 0.1)
(1 5.701 0.35)
(1 5.69724 0.383378)
(1 5.68614 0.415083)
(1 5.66827 0.443523)
(1 5.64452 0.467275)
(1 5.61608 0.485145)
(1 5.58438 0.496239)
(1 5.121 0.33)
(1 5.12476 0.363378)
(1 5.13586 0.395083)
(1 5.15373 0.423523)
(1 5.17748 0.447275)
(1 5.20592 0.465145)
(1 5.23762 0.476239)
(1 5.271 0.48)
(1 5.531 0.48)
(1 5.56438 0.476239)
(1 5.59608 0.465145)
(1 5.62452 0.447275)
(1 5.64827 0.423523)
(1 5.66614 0.395083)
(1 5.67724 0.363378)
(1 5.681 0.33)
(1 5.681 0.1)
(1 5.121 0.1)
(1 5.101 0.1)
(1 5.701 0.1)
(0.91 5.521 0.48)
(0.91 5.501 0.48)
(0.884118 5.521 0.483407)
(0.884118 5.501 0.483407)
(0.86 5.521 0.493398)
(0.86 5.501 0.493398)
(0.839289 5.521 0.509289)
(0.839289 5.501 0.509289)
(0.823398 5.521 0.53)
(0.823398 5.501 0.53)
(0.813407 5.521 0.554118)
(0.813407 5.501 0.554118)
(0.81 5.521 0.58)
(0.81 5.501 0.58)
(0.81 5.501 0.855)
(0.81 5.521 0.855)
(0.83 5.501 0.575)
(0.83 5.501 0.855)
(0.832556 5.501 0.555589)
(0.840048 5.501 0.5375)
(0.851967 5.501 0.521967)
(0.8675 5.501 0.510048)
(0.885589 5.501 0.502556)
(0.905 5.501 0.5)
(1.005 5.501 0.5)
(1.005 5.501 0.48)
(0.905 5.521 0.5)
(0.885589 5.521 0.502556)
(0.8675 5.521 0.510048)
(0.851967 5.521 0.521967)
(0.840048 5.521 0.5375)
(0.832556 5.521 0.555589)
(0.83 5.521 0.575)
(0.83 5.521 0.855)
(1.005 5.521 0.5)
(0.91 5.296 0.48)
(0.91 5.276 0.48)
(0.884118 5.296 0.483407)
(0.884118 5.276 0.483407)
(0.86 5.296 0.493398)
(0.86 5.276 0.493398)
(0.839289 5.296 0.509289)
(0.839289 5.276 0.509289)
(0.823398 5.296 0.53)
(0.823398 5.276 0.53)
(0.813407 5.296 0.554118)
(0.813407 5.276 0.554118)
(0.81 5.296 0.58)
(0.81 5.276 0.58)
(0.83 5.276 0.575)
(0.83 5.276 0.855)
(0.832556 5.276 0.555589)
(0.840048 5.276 0.5375)
(0.851967 5.276 0.521967)
(0.8675 5.276 0.510048)
(0.885589 5.276 0.502556)
(0.905 5.276 0.5)
(1.005 5.276 0.5)
(1.005 5.276 0.48)
(0.905 5.296 0.5)
(0.885589 5.296 0.502556)
(0.8675 5.296 0.510048)
(0.851967 5.296 0.521967)
(0.840048 5.296 0.5375)
(0.832556 5.296 0.555589)
(0.83 5.296 0.575)
(0.83 5.296 0.855)
(1.005 5.296 0.5)
(0.81 5.296 0.855)
(0.85 5.555 0.77)
(0.83 5.555 0.77)
(0.85 5.56018 0.770682)
(0.83 5.56018 0.770682)
(0.85 5.565 0.77268)
(0.83 5.565 0.77268)
(0.85 5.56914 0.775858)
(0.83 5.56914 0.775858)
(0.85 5.57232 0.78)
(0.83 5.57232 0.78)
(0.85 5.57432 0.784824)
(0.83 5.57432 0.784824)
(0.85 5.575 0.79)
(0.83 5.575 0.79)
(0.85 5.245 0.77)
(0.83 5.245 0.77)
(0.85 5.225 0.79)
(0.85 5.22568 0.784824)
(0.85 5.575 0.925)
(0.85 5.225 0.925)
(0.85 5.245 0.945)
(0.85 5.22568 0.930176)
(0.85 5.22768 0.935)
(0.85 5.23086 0.939142)
(0.85 5.235 0.942321)
(0.85 5.23982 0.944318)
(0.85 5.555 0.945)
(0.85 5.57432 0.930176)
(0.85 5.57232 0.935)
(0.85 5.56914 0.939142)
(0.85 5.565 0.942321)
(0.85 5.56018 0.944318)
(0.85 5.22768 0.78)
(0.85 5.23086 0.775858)
(0.85 5.235 0.77268)
(0.85 5.23982 0.770682)
(0.83 5.225 0.79)
(0.83 5.22568 0.784824)
(0.83 5.22768 0.78)
(0.83 5.23086 0.775858)
(0.83 5.235 0.77268)
(0.83 5.23982 0.770682)
(0.83 5.225 0.925)
(0.83 5.575 0.925)
(0.83 5.57432 0.930176)
(0.83 5.57232 0.935)
(0.83 5.56914 0.939142)
(0.83 5.565 0.942321)
(0.83 5.56018 0.944318)
(0.83 5.555 0.945)
(0.83 5.245 0.945)
(0.83 5.23982 0.944318)
(0.83 5.235 0.942321)
(0.83 5.23086 0.939142)
(0.83 5.22768 0.935)
(0.83 5.22568 0.930176)
(1.58 5.121 0.345)
(1.58 5.121 0.325)
(1.02 5.121 0.345)
(1.02 5.121 0.325)
(1.58 5.101 0.345)
(1.02 5.101 0.345)
(1.58 5.101 0.325)
(1.02 5.101 0.325)
(1.58 5.701 0.345)
(1.58 5.701 0.325)
(1.02 5.701 0.345)
(1.02 5.701 0.325)
(1.58 5.681 0.345)
(1.02 5.681 0.345)
(1.58 5.681 0.325)
(1.02 5.681 0.325)
(1.6 7.2 0.85)
(1.1 7.2 0.85)
(1.6 7.2 0.87)
(1.1 7.2 0.87)
(1.6 6.6 0.85)
(1.6 6.6 0.87)
(1.1 6.6 0.85)
(1.1 6.6 0.87)
(1.6 6.621 0.1)
(1.58 6.621 0.1)
(1.6 6.621 0.85)
(1.58 6.621 0.85)
(1.6 6.601 0.1)
(1.6 6.601 0.85)
(1.58 6.601 0.1)
(1.58 6.601 0.85)
(1.6 7.201 0.1)
(1.58 7.201 0.1)
(1.6 7.201 0.85)
(1.58 7.201 0.85)
(1.6 7.181 0.1)
(1.6 7.181 0.85)
(1.58 7.181 0.1)
(1.58 7.181 0.85)
(1.25 7.075 0.5)
(0.9 7.075 0.5)
(1.25 7.075 0.52)
(0.9 7.075 0.52)
(1.25 6.725 0.5)
(1.25 6.725 0.52)
(0.9 6.725 0.5)
(0.9 6.725 0.52)
(1 6.601 0.35)
(1.02 6.601 0.35)
(1 6.60476 0.383378)
(1.02 6.60476 0.383378)
(1 6.61586 0.415083)
(1.02 6.61586 0.415083)
(1 6.63373 0.443523)
(1.02 6.63373 0.443523)
(1 6.65748 0.467275)
(1.02 6.65748 0.467275)
(1 6.68592 0.485145)
(1.02 6.68592 0.485145)
(1 6.71762 0.496239)
(1.02 6.71762 0.496239)
(1 6.751 0.5)
(1.02 6.751 0.5)
(1 7.051 0.5)
(1.02 7.051 0.5)
(1.02 6.73762 0.476239)
(1.02 6.771 0.48)
(1.02 7.031 0.48)
(1.02 7.06438 0.476239)
(1.02 6.70592 0.465145)
(1.02 6.67748 0.447275)
(1.02 6.65373 0.423523)
(1.02 6.63586 0.395083)
(1.02 6.62476 0.363378)
(1.02 6.621 0.33)
(1.02 6.601 0.1)
(1.02 6.621 0.1)
(1.02 7.08438 0.496239)
(1.02 7.09608 0.465145)
(1.02 7.11608 0.485145)
(1.02 7.14452 0.467275)
(1.02 7.12452 0.447275)
(1.02 7.16827 0.443523)
(1.02 7.14827 0.423523)
(1.02 7.18614 0.415083)
(1.02 7.16614 0.395083)
(1.02 7.19724 0.383378)
(1.02 7.17724 0.363378)
(1.02 7.201 0.35)
(1.02 7.181 0.33)
(1.02 7.201 0.1)
(1.02 7.181 0.1)
(1 7.201 0.35)
(1 7.19724 0.383378)
(1 7.18614 0.415083)
(1 7.16827 0.443523)
(1 7.14452 0.467275)
(1 7.11608 0.485145)
(1 7.08438 0.496239)
(1 6.621 0.33)
(1 6.62476 0.363378)
(1 6.63586 0.395083)
(1 6.65373 0.423523)
(1 6.67748 0.447275)
(1 6.70592 0.465145)
(1 6.73762 0.476239)
(1 6.771 0.48)
(1 7.031 0.48)
(1 7.06438 0.476239)
(1 7.09608 0.465145)
(1 7.12452 0.447275)
(1 7.14827 0.423523)
(1 7.16614 0.395083)
(1 7.17724 0.363378)
(1 7.181 0.33)
(1 7.181 0.1)
(1 6.621 0.1)
(1 6.601 0.1)
(1 7.201 0.1)
(0.91 7.021 0.48)
(0.91 7.001 0.48)
(0.884118 7.021 0.483407)
(0.884118 7.001 0.483407)
(0.86 7.021 0.493398)
(0.86 7.001 0.493398)
(0.839289 7.021 0.509289)
(0.839289 7.001 0.509289)
(0.823398 7.021 0.53)
(0.823398 7.001 0.53)
(0.813407 7.021 0.554118)
(0.813407 7.001 0.554118)
(0.81 7.021 0.58)
(0.81 7.001 0.58)
(0.81 7.001 0.855)
(0.81 7.021 0.855)
(0.83 7.001 0.575)
(0.83 7.001 0.855)
(0.832556 7.001 0.555589)
(0.840048 7.001 0.5375)
(0.851967 7.001 0.521967)
(0.8675 7.001 0.510048)
(0.885589 7.001 0.502556)
(0.905 7.001 0.5)
(1.005 7.001 0.5)
(1.005 7.001 0.48)
(0.905 7.021 0.5)
(0.885589 7.021 0.502556)
(0.8675 7.021 0.510048)
(0.851967 7.021 0.521967)
(0.840048 7.021 0.5375)
(0.832556 7.021 0.555589)
(0.83 7.021 0.575)
(0.83 7.021 0.855)
(1.005 7.021 0.5)
(0.91 6.796 0.48)
(0.91 6.776 0.48)
(0.884118 6.796 0.483407)
(0.884118 6.776 0.483407)
(0.86 6.796 0.493398)
(0.86 6.776 0.493398)
(0.839289 6.796 0.509289)
(0.839289 6.776 0.509289)
(0.823398 6.796 0.53)
(0.823398 6.776 0.53)
(0.813407 6.796 0.554118)
(0.813407 6.776 0.554118)
(0.81 6.796 0.58)
(0.81 6.776 0.58)
(0.83 6.776 0.575)
(0.83 6.776 0.855)
(0.832556 6.776 0.555589)
(0.840048 6.776 0.5375)
(0.851967 6.776 0.521967)
(0.8675 6.776 0.510048)
(0.885589 6.776 0.502556)
(0.905 6.776 0.5)
(1.005 6.776 0.5)
(1.005 6.776 0.48)
(0.905 6.796 0.5)
(0.885589 6.796 0.502556)
(0.8675 6.796 0.510048)
(0.851967 6.796 0.521967)
(0.840048 6.796 0.5375)
(0.832556 6.796 0.555589)
(0.83 6.796 0.575)
(0.83 6.796 0.855)
(1.005 6.796 0.5)
(0.81 6.796 0.855)
(0.85 7.055 0.77)
(0.83 7.055 0.77)
(0.85 7.06018 0.770682)
(0.83 7.06018 0.770682)
(0.85 7.065 0.77268)
(0.83 7.065 0.77268)
(0.85 7.06914 0.775858)
(0.83 7.06914 0.775858)
(0.85 7.07232 0.78)
(0.83 7.07232 0.78)
(0.85 7.07432 0.784824)
(0.83 7.07432 0.784824)
(0.85 7.075 0.79)
(0.83 7.075 0.79)
(0.85 6.745 0.77)
(0.83 6.745 0.77)
(0.85 6.725 0.79)
(0.85 6.72568 0.784824)
(0.85 7.075 0.925)
(0.85 6.725 0.925)
(0.85 6.745 0.945)
(0.85 6.72568 0.930176)
(0.85 6.72768 0.935)
(0.85 6.73086 0.939142)
(0.85 6.735 0.942321)
(0.85 6.73982 0.944318)
(0.85 7.055 0.945)
(0.85 7.07432 0.930176)
(0.85 7.07232 0.935)
(0.85 7.06914 0.939142)
(0.85 7.065 0.942321)
(0.85 7.06018 0.944318)
(0.85 6.72768 0.78)
(0.85 6.73086 0.775858)
(0.85 6.735 0.77268)
(0.85 6.73982 0.770682)
(0.83 6.725 0.79)
(0.83 6.72568 0.784824)
(0.83 6.72768 0.78)
(0.83 6.73086 0.775858)
(0.83 6.735 0.77268)
(0.83 6.73982 0.770682)
(0.83 6.725 0.925)
(0.83 7.075 0.925)
(0.83 7.07432 0.930176)
(0.83 7.07232 0.935)
(0.83 7.06914 0.939142)
(0.83 7.065 0.942321)
(0.83 7.06018 0.944318)
(0.83 7.055 0.945)
(0.83 6.745 0.945)
(0.83 6.73982 0.944318)
(0.83 6.735 0.942321)
(0.83 6.73086 0.939142)
(0.83 6.72768 0.935)
(0.83 6.72568 0.930176)
(1.58 6.621 0.345)
(1.58 6.621 0.325)
(1.02 6.621 0.345)
(1.02 6.621 0.325)
(1.58 6.601 0.345)
(1.02 6.601 0.345)
(1.58 6.601 0.325)
(1.02 6.601 0.325)
(1.58 7.201 0.345)
(1.58 7.201 0.325)
(1.02 7.201 0.345)
(1.02 7.201 0.325)
(1.58 7.181 0.345)
(1.02 7.181 0.345)
(1.58 7.181 0.325)
(1.02 7.181 0.325)
(2.6 1.2 0.85)
(2.1 1.2 0.85)
(2.6 1.2 0.87)
(2.1 1.2 0.87)
(2.6 0.6 0.85)
(2.6 0.6 0.87)
(2.1 0.6 0.85)
(2.1 0.6 0.87)
(2.6 0.621 0.1)
(2.58 0.621 0.1)
(2.6 0.621 0.85)
(2.58 0.621 0.85)
(2.6 0.601 0.1)
(2.6 0.601 0.85)
(2.58 0.601 0.1)
(2.58 0.601 0.85)
(2.6 1.201 0.1)
(2.58 1.201 0.1)
(2.6 1.201 0.85)
(2.58 1.201 0.85)
(2.6 1.181 0.1)
(2.6 1.181 0.85)
(2.58 1.181 0.1)
(2.58 1.181 0.85)
(2.25 1.075 0.5)
(1.9 1.075 0.5)
(2.25 1.075 0.52)
(1.9 1.075 0.52)
(2.25 0.725 0.5)
(2.25 0.725 0.52)
(1.9 0.725 0.5)
(1.9 0.725 0.52)
(2 0.601 0.35)
(2.02 0.601 0.35)
(2 0.604761 0.383378)
(2.02 0.604761 0.383378)
(2 0.615855 0.415083)
(2.02 0.615855 0.415083)
(2 0.633725 0.443523)
(2.02 0.633725 0.443523)
(2 0.657476 0.467275)
(2.02 0.657476 0.467275)
(2 0.685917 0.485145)
(2.02 0.685917 0.485145)
(2 0.717622 0.496239)
(2.02 0.717622 0.496239)
(2 0.751 0.5)
(2.02 0.751 0.5)
(2 1.051 0.5)
(2.02 1.051 0.5)
(2.02 0.737622 0.476239)
(2.02 0.771 0.48)
(2.02 1.031 0.48)
(2.02 1.06438 0.476239)
(2.02 0.705917 0.465145)
(2.02 0.677477 0.447275)
(2.02 0.653725 0.423523)
(2.02 0.635855 0.395083)
(2.02 0.624761 0.363378)
(2.02 0.621 0.33)
(2.02 0.601 0.1)
(2.02 0.621 0.1)
(2.02 1.08438 0.496239)
(2.02 1.09608 0.465145)
(2.02 1.11608 0.485145)
(2.02 1.14452 0.467275)
(2.02 1.12452 0.447275)
(2.02 1.16827 0.443523)
(2.02 1.14828 0.423523)
(2.02 1.18614 0.415083)
(2.02 1.16614 0.395083)
(2.02 1.19724 0.383378)
(2.02 1.17724 0.363378)
(2.02 1.201 0.35)
(2.02 1.181 0.33)
(2.02 1.201 0.1)
(2.02 1.181 0.1)
(2 1.201 0.35)
(2 1.19724 0.383378)
(2 1.18614 0.415083)
(2 1.16827 0.443523)
(2 1.14452 0.467275)
(2 1.11608 0.485145)
(2 1.08438 0.496239)
(2 0.621 0.33)
(2 0.624761 0.363378)
(2 0.635855 0.395083)
(2 0.653725 0.423523)
(2 0.677477 0.447275)
(2 0.705917 0.465145)
(2 0.737622 0.476239)
(2 0.771 0.48)
(2 1.031 0.48)
(2 1.06438 0.476239)
(2 1.09608 0.465145)
(2 1.12452 0.447275)
(2 1.14828 0.423523)
(2 1.16614 0.395083)
(2 1.17724 0.363378)
(2 1.181 0.33)
(2 1.181 0.1)
(2 0.621 0.1)
(2 0.601 0.1)
(2 1.201 0.1)
(1.91 1.021 0.48)
(1.91 1.001 0.48)
(1.88412 1.021 0.483407)
(1.88412 1.001 0.483407)
(1.86 1.021 0.493398)
(1.86 1.001 0.493398)
(1.83929 1.021 0.509289)
(1.83929 1.001 0.509289)
(1.8234 1.021 0.53)
(1.8234 1.001 0.53)
(1.81341 1.021 0.554118)
(1.81341 1.001 0.554118)
(1.81 1.021 0.58)
(1.81 1.001 0.58)
(1.81 1.001 0.855)
(1.81 1.021 0.855)
(1.83 1.001 0.575)
(1.83 1.001 0.855)
(1.83256 1.001 0.555589)
(1.84005 1.001 0.5375)
(1.85197 1.001 0.521967)
(1.8675 1.001 0.510048)
(1.88559 1.001 0.502556)
(1.905 1.001 0.5)
(2.005 1.001 0.5)
(2.005 1.001 0.48)
(1.905 1.021 0.5)
(1.88559 1.021 0.502556)
(1.8675 1.021 0.510048)
(1.85197 1.021 0.521967)
(1.84005 1.021 0.5375)
(1.83256 1.021 0.555589)
(1.83 1.021 0.575)