/*--------------------------------*- C++ -*----------------------------------*\
  =========                 |
  \\      /  F ield         | OpenFOAM: The Open Source CFD Toolbox
   \\    /   O peration     | Website:  https://openfoam.org
    \\  /    A nd           | Version:  12
     \\/     M anipulation  |
\*---------------------------------------------------------------------------*/
FoamFile
{
    format      ascii;
    class       volVectorField;
    object      U;
}
// * * * * * * * * * * * * * * * * * * * * * * * * * * * * * * * * * * * * * //

dimensions      [0 1 -1 0 0 0 0];

internalField   uniform (0 0 0);

boundaryField
{

    top 
    {
        type            fixedValue;
        value           uniform (0 0 -1);
    }

    bottom
    {
        type            noSlip;
    }

    inlet 
    {
        type            noSlip;
    }

    outlet 
    {
        type            noSlip;
    }

    left 
    {
        type            noSlip;
    }

    right
    {
        type            noSlip;
    }

    volume 
    {
        type            noSlip;
    }
}

// ************************************************************************* //
