/*--------------------------------*- C++ -*----------------------------------*\
  =========                 |
  \\      /  F ield         | OpenFOAM: The Open Source CFD Toolbox
   \\    /   O peration     | Website:  https://openfoam.org
    \\  /    A nd           | Version:  12
     \\/     M anipulation  |
\*---------------------------------------------------------------------------*/
FoamFile
{
    format      ascii;
    class       featureEdgeMesh;
    location    "constant/triSurface";
    object      room.eMesh;
}
// * * * * * * * * * * * * * * * * * * * * * * * * * * * * * * * * * * * * * //


// points:

28255
(
(-2.25519 11.3214 0.785569)
(-6.95519 11.3214 0.835569)
(-6.95519 11.5714 2.83557)
(-8.63244 -0.0138107 3.99112)
(-8.75944 11.9902 -0.00887881)
(-5.06173 8.81728 0.0411212)
(-7.03673 8.81728 0.791121)
(-5.06173 8.81728 0.991121)
(-5.04475 7.40385 0.991121)
(-7.01975 7.40385 0.791121)
(-5.04475 7.40385 0.0411212)
(-5.0401 5.91698 0.991121)
(-7.0151 5.91698 0.791121)
(-5.05384 4.53313 0.991121)
(-7.02884 4.53313 0.791121)
(-5.05384 4.53313 0.0411212)
(-1.60744 8.83218 0.991121)
(-3.58244 8.83218 0.791121)
(-1.60744 8.83218 0.0411212)
(-1.59807 7.40927 0.991121)
(-3.57307 7.40927 0.791121)
(-1.59807 7.40927 0.0411212)
(-1.62262 5.97079 0.991121)
(-3.59762 5.97079 0.791121)
(-1.62262 5.97079 0.0411212)
(-1.61342 4.53839 0.991121)
(-3.58842 4.53839 0.791121)
(-1.61342 4.53839 0.0411212)
(-5.07575 3.20398 0.991121)
(-7.05075 3.20398 0.791121)
(-5.07575 3.20398 0.0411212)
(-1.61714 3.19057 0.991121)
(-3.59214 3.19057 0.791121)
(-1.61714 3.19057 0.0411212)
(-5.52453 10.9609 1.14112)
(-3.54953 10.9609 0.941121)
(-5.52453 10.9609 0.191121)
(-6.76208 3.16004 3e-05)
(-6.76462 3.02129 0.6)
(-6.76463 3.02135 0.600007)
(-6.76204 3.1627 3e-05)
(-6.76219 3.16141 3e-05)
(-6.76463 3.02138 0.600011)
(-6.68768 3.00649 0.6)
(-6.68688 3.00728 0.60014)
(-6.55 3.00619 3e-05)
(-6.67169 2.99036 0.600821)
(-6.6719 2.98939 0.600757)
(-6.53394 2.98855 3e-05)
(-6.67608 2.98157 0.6)
(-6.53838 2.9813 3e-05)
(-6.67528 2.98236 0.600118)
(-6.68179 3.00929 0.600793)
(-6.68176 3.00929 0.600796)
(-6.54362 3.00929 3e-05)
(-6.67637 2.9813 0.6)
(-6.53621 2.98368 3e-05)
(-6.55193 2.98516 3e-05)
(-6.53531 2.98516 3e-05)
(-6.53455 3.00179 3e-05)
(-6.53394 3.00003 3e-05)
(-6.55269 3.00179 3e-05)
(-6.5533 3.00003 3e-05)
(-6.53314 2.99442 3e-05)
(-6.53314 2.99429 3e-05)
(-6.5541 2.99429 3e-05)
(-6.53323 2.99246 3e-05)
(-6.55401 2.99233 3e-05)
(-6.53323 2.99233 3e-05)
(-6.53348 2.99054 3e-05)
(-6.55374 2.99041 3e-05)
(-6.53349 2.99041 3e-05)
(-6.53391 2.98867 3e-05)
(-6.5533 2.98855 3e-05)
(-6.55269 2.98679 3e-05)
(-6.53455 2.98679 3e-05)
(-6.74232 3.01187 0.6)
(-6.7415 3.15141 3e-05)
(-6.74229 3.01188 0.6)
(-6.73155 2.76567 3e-05)
(-6.72974 2.90578 0.600479)
(-6.73165 2.76568 3e-05)
(-6.74455 2.91755 0.6)
(-6.74418 2.77877 3e-05)
(-6.7442 2.7787 3e-05)
(-6.54091 3.00878 3e-05)
(-6.53961 3.00815 3e-05)
(-6.55193 3.00342 3e-05)
(-6.53838 3.00728 3e-05)
(-6.53732 3.00626 3e-05)
(-6.541 3.00881 3e-05)
(-6.53725 3.00619 3e-05)
(-6.55103 3.0049 3e-05)
(-6.54235 3.00917 3e-05)
(-6.54226 3.00916 3e-05)
(-6.53621 3.0049 3e-05)
(-6.53531 3.00342 3e-05)
(-6.54886 3.00728 3e-05)
(-6.54763 3.00815 3e-05)
(-6.54633 3.00878 3e-05)
(-6.54499 3.00916 3e-05)
(-6.73984 3.15194 3e-05)
(-6.53349 2.99817 3e-05)
(-6.53325 2.99638 3e-05)
(-6.55401 2.99625 3e-05)
(-6.55374 2.99817 3e-05)
(-6.53352 2.99829 3e-05)
(-6.53725 2.98239 3e-05)
(-6.5383 2.98138 3e-05)
(-6.55 2.98239 3e-05)
(-6.54886 2.9813 3e-05)
(-6.53961 2.98043 3e-05)
(-6.54763 2.98043 3e-05)
(-6.54091 2.9798 3e-05)
(-6.54216 2.97945 3e-05)
(-6.54633 2.9798 3e-05)
(-6.54226 2.97942 3e-05)
(-6.54352 2.9793 3e-05)
(-6.54499 2.97942 3e-05)
(-6.54362 2.97929 3e-05)
(-6.68622 3.00777 0.600243)
(-6.55103 2.98368 3e-05)
(-6.53323 2.99625 3e-05)
(-6.73417 3.16622 3e-05)
(-6.73759 3.02723 0.6)
(-6.73411 3.16616 3e-05)
(-6.92277 2.97874 3e-05)
(-6.78371 2.97508 0.6)
(-6.78368 2.97512 0.6)
(-6.68799 3.00619 0.6)
(-6.69226 3.01172 0.6)
(-6.68902 3.0049 0.6)
(-6.69069 3.00179 0.6)
(-6.69129 3.00003 0.6)
(-6.73785 3.0145 0.6)
(-6.69173 2.99817 0.6)
(-6.692 2.99625 0.6)
(-6.69209 2.99429 0.6)
(-6.68993 3.00342 0.6)
(-6.692 2.99233 0.6)
(-6.73787 3.01448 0.6)
(-6.69069 2.98679 0.6)
(-6.68993 2.98516 0.6)
(-6.72969 2.92663 0.6)
(-6.73165 2.92654 0.6)
(-6.69129 2.98855 0.6)
(-6.72773 2.92654 0.6)
(-6.6752 2.96146 0.6)
(-6.67673 2.95376 0.6)
(-6.68433 2.9798 0.6)
(-6.68161 2.97929 0.6)
(-6.68027 2.97942 0.6)
(-6.67469 2.96929 0.6)
(-6.68024 2.97942 0.6)
(-6.67893 2.97979 0.6)
(-6.6789 2.9798 0.6)
(-6.6752 2.97712 0.6)
(-6.6776 2.98043 0.6)
(-6.68709 2.93276 0.6)
(-6.69226 2.92686 0.6)
(-6.68799 2.98239 0.6)
(-6.72581 2.92627 0.6)
(-6.68902 2.98368 0.6)
(-6.68273 2.93929 0.6)
(-6.68685 2.9813 0.6)
(-6.67926 2.94633 0.6)
(-6.68562 2.98043 0.6)
(-6.68298 2.97942 0.6)
(-6.70469 3.02125 0.6)
(-6.73584 3.01684 0.6)
(-6.71173 3.02472 0.6)
(-6.73519 3.01812 0.6)
(-6.71916 3.02725 0.6)
(-6.73463 3.02083 0.6)
(-6.72686 3.02878 0.6)
(-6.7351 3.02355 0.6)
(-6.73569 3.02482 0.6)
(-6.73473 3.02216 0.6)
(-6.73474 3.0222 0.6)
(-6.73509 3.02351 0.6)
(-6.7357 3.02485 0.6)
(-6.73653 3.02606 0.6)
(-6.73469 3.02929 0.6)
(-6.73655 3.0261 0.6)
(-6.73762 3.02726 0.6)
(-6.73886 3.02828 0.6)
(-6.7389 3.02831 0.6)
(-6.73991 3.02895 0.6)
(-6.73478 3.01946 0.6)
(-6.73479 3.01943 0.6)
(-6.73429 3.15569 3e-05)
(-6.73674 3.01562 0.6)
(-6.7354 3.15457 3e-05)
(-6.74065 3.01261 0.6)
(-6.74068 3.0126 0.6)
(-6.69816 3.01689 0.6)
(-6.73586 3.01681 0.6)
(-6.73521 3.01809 0.6)
(-6.74406 3.0113 0.6)
(-6.74161 3.15137 3e-05)
(-6.75373 3.01104 0.6)
(-6.75369 3.01104 0.6)
(-6.77102 2.97725 0.6)
(-6.7699 2.97614 0.6)
(-6.74981 3.01061 0.6)
(-6.74785 3.01066 0.6)
(-6.76889 2.97482 0.6)
(-6.76799 2.9733 0.6)
(-6.76801 2.97333 0.6)
(-6.76728 2.97169 0.6)
(-6.76727 2.97166 0.6)
(-6.7667 2.96992 0.6)
(-6.74592 3.0109 0.6)
(-6.73357 2.92627 0.6)
(-6.76164 3.01492 0.6)
(-6.77712 3.01172 0.6)
(-6.76271 3.01608 0.6)
(-6.76272 3.0161 0.6)
(-6.77122 3.01689 0.6)
(-6.76469 3.02125 0.6)
(-6.76452 3.01998 0.6)
(-6.76417 3.01866 0.6)
(-6.76416 3.01863 0.6)
(-6.76357 3.01734 0.6)
(-6.76355 3.01732 0.6)
(-6.76629 2.96806 0.6)
(-6.76606 2.96613 0.6)
(-6.7441 3.01129 0.6)
(-6.73919 3.01348 0.6)
(-6.72219 2.76699 3e-05)
(-6.72219 2.90717 0.600437)
(-6.72395 2.90657 0.600468)
(-6.76887 2.9748 0.6)
(-6.7323 3.16226 3e-05)
(-6.76988 2.97611 0.6)
(-6.74985 3.01061 0.6)
(-6.75177 3.01074 0.6)
(-6.75554 3.0115 0.6)
(-6.77221 2.97812 0.6)
(-6.77223 2.97814 0.6)
(-6.75729 3.01214 0.6)
(-6.77349 2.97878 0.6)
(-6.77352 2.97879 0.6)
(-6.75732 3.01216 0.6)
(-6.75891 3.01293 0.6)
(-6.77756 2.97925 0.6)
(-6.78665 2.99929 0.6)
(-6.77623 2.97935 0.6)
(-6.77759 2.97924 0.6)
(-6.78021 2.97829 0.6)
(-6.79012 2.99225 0.6)
(-6.77894 2.97889 0.6)
(-6.77891 2.9789 0.6)
(-6.78025 2.97828 0.6)
(-6.78149 2.97743 0.6)
(-6.78146 2.97745 0.6)
(-6.76039 3.01388 0.6)
(-6.76037 3.01386 0.6)
(-6.77483 2.97919 0.6)
(-6.78229 3.00582 0.6)
(-6.77486 2.9792 0.6)
(-6.76669 2.96989 0.6)
(-6.79265 2.98482 0.6)
(-6.78265 2.97636 0.6)
(-6.78262 2.97639 0.6)
(-6.78464 2.97362 0.6)
(-6.7854 2.97205 0.6)
(-6.79418 2.97712 0.6)
(-6.73882 2.90788 0.60021)
(-6.73882 2.76775 3e-05)
(-6.73719 2.90714 0.60029)
(-6.78542 2.97201 0.6)
(-6.78606 2.97026 0.6)
(-6.79469 2.96929 0.6)
(-6.78652 2.96846 0.6)
(-6.78654 2.96841 0.6)
(-6.71482 2.91752 0.6)
(-6.71519 2.91883 0.6)
(-6.70469 2.91733 0.6)
(-6.7152 2.91886 0.6)
(-6.71582 2.92013 0.6)
(-6.71469 2.91615 0.6)
(-6.73916 3.01349 0.6)
(-6.72219 2.92522 0.6)
(-6.72395 2.92583 0.6)
(-6.69173 2.99041 0.6)
(-6.71173 2.91386 0.6)
(-6.71469 2.91611 0.6)
(-6.71583 2.92016 0.6)
(-6.69816 2.92169 0.6)
(-6.71908 2.92356 0.6)
(-6.72056 2.92446 0.6)
(-6.71779 2.92253 0.6)
(-6.7167 2.92139 0.6)
(-6.71564 2.91253 0.6)
(-6.7152 2.91344 0.6)
(-6.71483 2.91475 0.6)
(-6.71482 2.91478 0.6)
(-6.74355 2.78007 3e-05)
(-6.74355 2.92016 0.6)
(-6.74268 2.7813 3e-05)
(-6.7715 2.95126 0.6)
(-6.77148 2.95128 0.6)
(-6.74268 2.92139 0.6)
(-6.77949 2.94992 0.6)
(-6.77945 2.94991 0.6)
(-6.78665 2.93929 0.6)
(-6.77675 2.94935 0.6)
(-6.77538 2.94946 0.6)
(-6.78229 2.93276 0.6)
(-6.7403 2.92356 0.6)
(-6.74159 2.92253 0.6)
(-6.77032 2.95234 0.6)
(-6.76928 2.95359 0.6)
(-6.76926 2.95361 0.6)
(-6.76833 2.95507 0.6)
(-6.73882 2.92446 0.6)
(-6.76755 2.95666 0.6)
(-6.73719 2.92522 0.6)
(-6.7669 2.95844 0.6)
(-6.73543 2.92583 0.6)
(-6.76754 2.95669 0.6)
(-6.76644 2.96026 0.6)
(-6.76643 2.96029 0.6)
(-6.76601 2.96413 0.6)
(-6.76613 2.96221 0.6)
(-6.76601 2.96417 0.6)
(-6.79012 2.94633 0.6)
(-6.78194 2.95145 0.6)
(-6.78077 2.95059 0.6)
(-6.78074 2.95057 0.6)
(-6.77814 2.94952 0.6)
(-6.77811 2.94951 0.6)
(-6.77678 2.94936 0.6)
(-6.77712 2.92686 0.6)
(-6.77403 2.94982 0.6)
(-6.77274 2.95041 0.6)
(-6.77406 2.94981 0.6)
(-6.77271 2.95043 0.6)
(-6.77122 2.92169 0.6)
(-6.74418 2.91886 0.6)
(-6.75765 2.91386 0.6)
(-6.74456 2.91752 0.6)
(-6.75022 2.91133 0.6)
(-6.74469 2.91615 0.6)
(-6.74456 2.91481 0.6)
(-6.74456 2.91478 0.6)
(-6.74419 2.91347 0.6)
(-6.74418 2.91344 0.6)
(-6.74355 2.91213 0.6)
(-6.74252 2.9098 0.6)
(-6.74268 2.91091 0.6)
(-6.74159 2.90977 0.6)
(-6.74162 2.9098 0.6)
(-6.74156 2.90974 0.6)
(-6.76469 2.91733 0.6)
(-6.74417 2.91889 0.6)
(-6.78696 2.96454 0.6)
(-6.79418 2.96146 0.6)
(-6.78696 2.96459 0.6)
(-6.78684 2.96649 0.6)
(-6.78691 2.96258 0.6)
(-6.78668 2.96065 0.6)
(-6.78627 2.95883 0.6)
(-6.79265 2.95376 0.6)
(-6.78626 2.95878 0.6)
(-6.78571 2.95706 0.6)
(-6.78569 2.95701 0.6)
(-6.78497 2.95541 0.6)
(-6.78495 2.95536 0.6)
(-6.7841 2.95391 0.6)
(-6.78408 2.95387 0.6)
(-6.78309 2.9526 0.6)
(-6.78306 2.95256 0.6)
(-6.78197 2.95148 0.6)
(-6.70469 3.02125 0.62)
(-6.6752 2.96146 0.62)
(-6.69816 3.01689 0.62)
(-6.69226 3.01172 0.62)
(-6.73272 3.15826 3e-05)
(-6.73274 3.15818 3e-05)
(-6.68709 3.00582 0.62)
(-6.68273 2.99929 0.62)
(-6.67926 2.99225 0.62)
(-6.6752 2.97712 0.62)
(-6.67673 2.98482 0.62)
(-6.67469 2.96929 0.62)
(-6.71173 3.02472 0.62)
(-6.74252 3.02878 0.62)
(-6.75022 3.02725 0.62)
(-6.67673 2.95376 0.62)
(-6.75765 3.02472 0.62)
(-6.72686 3.02878 0.62)
(-6.73469 3.02929 0.62)
(-6.76469 3.02125 0.62)
(-6.77122 3.01689 0.62)
(-6.77712 3.01172 0.62)
(-6.78229 3.00582 0.62)
(-6.78665 2.99929 0.62)
(-6.71916 3.02725 0.62)
(-6.79012 2.99225 0.62)
(-6.79265 2.98482 0.62)
(-6.79418 2.97712 0.62)
(-6.79469 2.96929 0.62)
(-6.67926 2.94633 0.62)
(-6.71173 2.91386 0.62)
(-6.68273 2.93929 0.62)
(-6.69816 2.92169 0.62)
(-6.69226 2.92686 0.62)
(-6.68709 2.93276 0.62)
(-6.79012 2.94633 0.62)
(-6.70469 2.91733 0.62)
(-6.73469 2.90929 0.62)
(-6.74252 2.9098 0.62)
(-6.71916 2.91133 0.62)
(-6.72686 2.9098 0.62)
(-6.77122 2.92169 0.62)
(-6.77712 2.92686 0.62)
(-6.78229 2.93276 0.62)
(-6.75022 2.91133 0.62)
(-6.75765 2.91386 0.62)
(-6.76469 2.91733 0.62)
(-6.79265 2.95376 0.62)
(-6.79418 2.96146 0.62)
(-6.78665 2.93929 0.62)
(-6.68599 3.03276 0.6025)
(-6.69469 3.03857 0.6025)
(-6.69469 3.03857 0.6175)
(-6.68599 3.03276 0.6175)
(-6.70408 3.0432 0.6175)
(-6.67786 3.00815 0.601124)
(-6.68268 3.00921 0.600695)
(-6.67122 3.01799 0.6025)
(-6.67551 3.00619 0.601232)
(-6.67662 3.00726 0.601191)
(-6.67664 3.00728 0.60119)
(-6.66541 3.00929 0.6175)
(-6.66541 3.00929 0.6025)
(-6.68042 3.00915 0.600926)
(-6.68045 3.00916 0.600924)
(-6.67914 3.00878 0.601034)
(-6.67812 3.02586 0.6025)
(-6.68313 3.00916 0.600649)
(-6.68444 3.00878 0.600494)
(-6.6857 3.00815 0.600324)
(-6.67122 3.01799 0.6175)
(-6.67812 3.02586 0.6175)
(-6.76206 3.15996 3e-05)
(-6.76172 3.15869 3e-05)
(-6.67448 3.0049 0.601249)
(-6.65742 2.99 0.6025)
(-6.65537 2.97973 0.6175)
(-6.65537 2.97973 0.6025)
(-6.65469 2.96929 0.6025)
(-6.65469 2.96929 0.6175)
(-6.65742 2.99 0.6175)
(-6.67266 2.98679 0.600562)
(-6.67208 2.98855 0.600701)
(-6.67358 3.00342 0.601257)
(-6.6741 3.00428 0.601246)
(-6.67745 3.00786 0.601146)
(-6.67526 2.98239 0.600122)
(-6.73337 3.15697 3e-05)
(-6.76139 3.02757 0.600527)
(-6.76127 3.02766 0.600531)
(-6.75773 3.16869 3e-05)
(-6.67143 2.99233 0.600932)
(-6.67137 2.99424 0.601016)
(-6.66078 2.9999 0.6025)
(-6.67168 2.99041 0.600825)
(-6.67144 2.99228 0.600929)
(-6.67136 2.99429 0.601019)
(-6.67143 2.9955 0.60106)
(-6.67147 2.9962 0.601094)
(-6.67147 2.99625 0.601097)
(-6.67175 2.99812 0.601169)
(-6.67176 2.99817 0.601171)
(-6.67219 2.99998 0.601222)
(-6.67221 3.00003 0.601224)
(-6.67242 3.00066 0.601234)
(-6.67282 3.00179 0.601252)
(-6.75792 3.15392 3e-05)
(-6.75646 3.15299 3e-05)
(-6.66078 2.9999 0.6175)
(-6.67339 2.98516 0.600419)
(-6.6731 2.98579 0.600469)
(-6.67426 2.98368 0.600276)
(-6.70408 3.0432 0.6025)
(-6.71398 3.04656 0.6025)
(-6.72425 3.04861 0.6025)
(-6.73469 3.04929 0.6025)
(-6.74032 3.0292 0.600034)
(-6.74036 3.02923 0.600038)
(-6.71398 3.04656 0.6175)
(-6.72425 3.04861 0.6175)
(-6.73469 3.04929 0.6175)
(-6.74513 3.04861 0.6175)
(-6.9266 2.97086 3e-05)
(-6.92697 2.96502 3e-05)
(-6.74737 3.15067 3e-05)
(-6.71484 2.7775 3e-05)
(-6.7152 2.77877 3e-05)
(-6.74513 3.04861 0.6025)
(-6.74271 3.03025 0.600185)
(-6.74198 3.02999 0.600147)
(-6.75141 3.03138 0.600538)
(-6.75133 3.03139 0.600535)
(-6.74896 3.17157 3e-05)
(-6.74945 3.03145 0.600497)
(-6.75089 3.17134 3e-05)
(-6.75334 3.03114 0.600587)
(-6.75099 3.17132 3e-05)
(-6.7538 3.03104 0.600593)
(-6.73269 3.16368 3e-05)
(-6.73331 3.16498 3e-05)
(-6.73326 3.16492 3e-05)
(-6.7382 3.15268 3e-05)
(-6.73974 3.15198 3e-05)
(-6.7317 2.90587 0.600452)
(-6.73347 2.76592 3e-05)
(-6.73165 2.90586 0.600454)
(-6.76204 3.16278 3e-05)
(-6.76448 3.02268 0.600149)
(-6.74373 3.03061 0.600253)
(-6.74386 3.03064 0.600261)
(-6.7554 3.04656 0.6025)
(-6.74552 3.03104 0.600351)
(-6.74558 3.03106 0.600354)
(-6.7475 3.03134 0.600436)
(-6.74939 3.03145 0.600495)
(-6.75516 3.03073 0.600612)
(-6.7653 3.0432 0.6025)
(-6.75521 3.03072 0.600613)
(-6.75698 3.03015 0.600617)
(-6.75858 3.02943 0.600596)
(-6.75693 3.03017 0.600617)
(-6.75862 3.02941 0.600596)
(-6.7594 3.02896 0.600573)
(-6.7554 3.04656 0.6175)
(-6.73357 2.78618 3e-05)
(-6.73165 2.78645 3e-05)
(-6.77469 3.03857 0.6025)
(-6.7653 3.0432 0.6175)
(-6.78339 3.03276 0.6025)
(-6.77469 3.03857 0.6175)
(-6.75636 3.15294 3e-05)
(-6.91409 2.95226 3e-05)
(-6.76011 3.02855 0.600566)
(-6.76007 3.02857 0.600567)
(-6.91037 2.95479 3e-05)
(-6.76142 3.02754 0.600526)
(-6.90734 2.97414 3e-05)
(-6.91544 2.9519 3e-05)
(-6.91536 2.95192 3e-05)
(-6.76251 3.02647 0.600465)
(-6.76253 3.02644 0.600463)
(-6.76339 3.02528 0.600381)
(-6.76341 3.02525 0.600379)
(-6.76408 3.02399 0.600274)
(-6.76406 3.02402 0.600276)
(-6.76447 3.02271 0.600152)
(-6.79126 3.02586 0.6025)
(-6.79816 3.01799 0.6025)
(-6.92308 2.95495 3e-05)
(-6.80397 3.00929 0.6025)
(-6.78339 3.03276 0.6175)
(-6.79126 3.02586 0.6175)
(-6.79816 3.01799 0.6175)
(-6.80397 3.00929 0.6175)
(-6.8086 2.9999 0.6025)
(-6.81196 2.99 0.6025)
(-6.8086 2.9999 0.6175)
(-6.7403 2.76866 3e-05)
(-6.74312 3.1712 3e-05)
(-6.81196 2.99 0.6175)
(-6.81401 2.97973 0.6175)
(-6.81401 2.97973 0.6025)
(-6.81469 2.96929 0.6025)
(-6.73543 2.90654 0.60035)
(-6.73719 2.76699 3e-05)
(-6.73543 2.76638 3e-05)
(-6.74468 2.77598 3e-05)
(-6.74456 2.7747 3e-05)
(-6.74454 2.77462 3e-05)
(-6.81469 2.96929 0.6175)
(-6.65537 2.95885 0.6025)
(-6.65537 2.95885 0.6175)
(-6.65742 2.94858 0.6175)
(-6.65742 2.94858 0.6025)
(-6.66078 2.93868 0.6175)
(-6.74033 2.90879 0.600109)
(-6.74159 2.76969 3e-05)
(-6.74152 2.76963 3e-05)
(-6.72056 2.90792 0.600385)
(-6.72056 2.76775 3e-05)
(-6.66541 2.92929 0.6025)
(-6.66078 2.93868 0.6025)
(-6.66541 2.92929 0.6175)
(-6.68599 2.90582 0.6025)
(-6.69469 2.90001 0.6175)
(-6.69469 2.90001 0.6025)
(-6.67812 2.91272 0.6025)
(-6.67122 2.92059 0.6025)
(-6.68599 2.90582 0.6175)
(-6.67812 2.91272 0.6175)
(-6.67122 2.92059 0.6175)
(-6.92615 2.97261 3e-05)
(-6.92613 2.97271 3e-05)
(-6.71776 2.90985 0.600232)
(-6.71779 2.90982 0.600235)
(-6.71773 2.76975 3e-05)
(-6.92671 2.96299 3e-05)
(-6.92633 2.96123 3e-05)
(-6.92673 2.96309 3e-05)
(-6.73525 3.16737 3e-05)
(-6.9269 2.96894 3e-05)
(-6.74469 2.77606 3e-05)
(-6.74456 2.77743 3e-05)
(-6.76106 3.15731 3e-05)
(-6.76026 3.15614 3e-05)
(-6.9263 2.96114 3e-05)
(-6.92571 2.95937 3e-05)
(-6.92502 2.95781 3e-05)
(-6.71859 2.90919 0.600277)
(-6.71398 2.89202 0.6025)
(-6.71908 2.9088 0.600312)
(-6.71779 2.76969 3e-05)
(-6.71583 2.91214 0.600038)
(-6.70408 2.89538 0.6025)
(-6.7167 2.91094 0.600146)
(-6.71673 2.91091 0.600148)
(-6.92497 2.95774 3e-05)
(-6.92414 2.95632 3e-05)
(-6.71901 2.76871 3e-05)
(-6.71782 2.9098 0.600236)
(-6.90677 2.97237 3e-05)
(-6.90638 2.97061 3e-05)
(-6.70408 2.89538 0.6175)
(-6.71398 2.89202 0.6175)
(-6.73469 2.90637 0.600365)
(-6.72395 2.76638 3e-05)
(-6.73663 3.15361 3e-05)
(-6.73357 2.90612 0.600406)
(-6.73469 2.88929 0.6025)
(-6.73362 2.90613 0.600404)
(-6.72969 2.90578 0.60048)
(-6.72425 2.88997 0.6025)
(-6.72778 2.90586 0.600485)
(-6.73265 3.1636 3e-05)
(-6.73232 3.16233 3e-05)
(-6.72773 2.90587 0.600485)
(-6.72637 2.90606 0.600472)
(-6.91358 2.98124 3e-05)
(-6.90834 2.95762 3e-05)
(-6.90761 2.95914 3e-05)
(-6.92314 2.95501 3e-05)
(-6.72581 2.90614 0.600476)
(-6.72444 2.90646 0.60047)
(-6.72586 2.90613 0.600476)
(-6.724 2.90656 0.600469)
(-6.91401 2.9523 3e-05)
(-6.73533 2.76636 3e-05)
(-6.7403 2.90876 0.600112)
(-6.74513 2.88997 0.6025)
(-6.72425 2.88997 0.6175)
(-6.73469 2.88929 0.6175)
(-6.74513 2.88997 0.6175)
(-6.9247 2.97607 3e-05)
(-6.92377 2.97753 3e-05)
(-6.78339 2.90582 0.6025)
(-6.79126 2.91272 0.6025)
(-6.9269 2.96884 3e-05)
(-6.7554 2.89202 0.6025)
(-6.7554 2.89202 0.6175)
(-6.7653 2.89538 0.6175)
(-6.77469 2.90001 0.6025)
(-6.7653 2.89538 0.6025)
(-6.90635 2.9705 3e-05)
(-6.77469 2.90001 0.6175)
(-6.75298 3.15154 3e-05)
(-6.75124 3.15109 3e-05)
(-6.79126 2.91272 0.6175)
(-6.78339 2.90582 0.6175)
(-6.90813 2.97587 3e-05)
(-6.90808 2.97578 3e-05)
(-6.81401 2.95885 0.6025)
(-6.81196 2.94858 0.6025)
(-6.81401 2.95885 0.6175)
(-6.81196 2.94858 0.6175)
(-6.8086 2.93868 0.6025)
(-6.80397 2.92929 0.6025)
(-6.74504 3.1715 3e-05)
(-6.74514 3.1715 3e-05)
(-6.79816 2.92059 0.6025)
(-6.8086 2.93868 0.6175)
(-6.80397 2.92929 0.6175)
(-6.79816 2.92059 0.6175)
(-6.91907 2.9813 3e-05)
(-6.76169 3.15862 3e-05)
(-6.76111 3.15739 3e-05)
(-6.919 2.98133 3e-05)
(-6.91773 2.98167 3e-05)
(-6.72969 2.78654 3e-05)
(-6.92031 2.98072 3e-05)
(-6.92201 2.9539 3e-05)
(-6.76097 3.1654 3e-05)
(-6.74418 2.77335 3e-05)
(-6.74355 2.77205 3e-05)
(-6.74268 2.77082 3e-05)
(-6.74159 2.78244 3e-05)
(-6.71908 2.76866 3e-05)
(-6.91818 2.95195 3e-05)
(-6.9181 2.95194 3e-05)
(-6.91271 2.95292 3e-05)
(-6.91153 2.95372 3e-05)
(-6.73671 3.15355 3e-05)
(-6.73719 2.78514 3e-05)
(-6.73882 2.78438 3e-05)
(-6.7403 2.78347 3e-05)
(-6.90901 2.97735 3e-05)
(-6.90996 2.97858 3e-05)
(-6.92549 2.97446 3e-05)
(-6.92474 2.97599 3e-05)
(-6.91765 2.98169 3e-05)
(-6.7492 3.15079 3e-05)
(-6.90694 2.961 3e-05)
(-6.90697 2.96089 3e-05)
(-6.92195 2.95385 3e-05)
(-6.90619 2.96466 3e-05)
(-6.90649 2.96274 3e-05)
(-6.91237 2.98062 3e-05)
(-6.91229 2.98058 3e-05)
(-6.92409 2.95625 3e-05)
(-6.90606 2.96661 3e-05)
(-6.90612 2.96857 3e-05)
(-6.90618 2.96478 3e-05)
(-6.92079 2.95301 3e-05)
(-6.92073 2.95297 3e-05)
(-6.92155 2.97987 3e-05)
(-6.92038 2.98067 3e-05)
(-6.91492 2.98164 3e-05)
(-6.73811 3.15273 3e-05)
(-6.747 3.17163 3e-05)
(-6.91116 2.97975 3e-05)
(-6.91365 2.98126 3e-05)
(-6.92272 2.9788 3e-05)
(-6.92162 2.97981 3e-05)
(-6.91636 2.98179 3e-05)
(-6.91629 2.98179 3e-05)
(-6.9168 2.95179 3e-05)
(-6.75617 3.16962 3e-05)
(-6.91944 2.95233 3e-05)
(-6.90738 2.97424 3e-05)
(-6.7167 2.77082 3e-05)
(-6.91951 2.95236 3e-05)
(-6.90839 2.95752 3e-05)
(-6.90932 2.95606 3e-05)
(-6.91031 2.95486 3e-05)
(-6.91278 2.95287 3e-05)
(-6.90895 2.97727 3e-05)
(-6.92702 2.96698 3e-05)
(-6.9068 2.97248 3e-05)
(-6.92575 2.95946 3e-05)
(-6.91109 2.9797 3e-05)
(-6.75484 3.15221 3e-05)
(-6.74337 3.15098 3e-05)
(-6.74137 3.17076 3e-05)
(-6.74127 3.17073 3e-05)
(-6.73518 3.16732 3e-05)
(-6.75624 3.16958 3e-05)
(-6.73357 2.76594 3e-05)
(-6.72056 2.78438 3e-05)
(-6.72219 2.78514 3e-05)
(-6.72395 2.78575 3e-05)
(-6.73543 2.78575 3e-05)
(-6.73219 3.16089 3e-05)
(-6.73219 3.16096 3e-05)
(-6.76101 3.16533 3e-05)
(-6.73645 3.16837 3e-05)
(-6.73953 3.17009 3e-05)
(-6.73652 3.16842 3e-05)
(-6.73791 3.1693 3e-05)
(-6.72959 2.76558 3e-05)
(-6.72773 2.76568 3e-05)
(-6.7334 3.1569 3e-05)
(-6.73423 3.15576 3e-05)
(-6.73234 3.15952 3e-05)
(-6.71482 2.77743 3e-05)
(-6.71469 2.77606 3e-05)
(-6.71524 2.77885 3e-05)
(-6.71908 2.78347 3e-05)
(-6.71779 2.78244 3e-05)
(-6.7167 2.7813 3e-05)
(-6.71583 2.78007 3e-05)
(-6.72572 2.76596 3e-05)
(-6.72581 2.76594 3e-05)
(-6.72773 2.78645 3e-05)
(-6.74348 3.15095 3e-05)
(-6.74541 3.15072 3e-05)
(-6.71583 2.77205 3e-05)
(-6.7152 2.77335 3e-05)
(-6.71518 2.77342 3e-05)
(-6.75284 3.1709 3e-05)
(-6.75453 3.17035 3e-05)
(-6.72969 2.76558 3e-05)
(-6.72763 2.76569 3e-05)
(-6.74262 2.77076 3e-05)
(-6.74359 2.77999 3e-05)
(-6.71482 2.7747 3e-05)
(-6.71481 2.77477 3e-05)
(-6.72581 2.78618 3e-05)
(-6.75766 3.16874 3e-05)
(-6.75461 3.17032 3e-05)
(-6.76008 3.16662 3e-05)
(-6.75276 3.17093 3e-05)
(-6.75897 3.16774 3e-05)
(-6.7592 3.15498 3e-05)
(-6.75903 3.16768 3e-05)
(-6.76013 3.16655 3e-05)
(-6.75912 3.15491 3e-05)
(-6.74932 3.15079 3e-05)
(-6.76162 3.16411 3e-05)
(-6.76165 3.16404 3e-05)
(-6.75309 3.15157 3e-05)
(-5.56208 3.16004 3e-05)
(-5.56462 3.02129 0.6)
(-5.56463 3.02135 0.600007)
(-5.56204 3.1627 3e-05)
(-5.56219 3.16141 3e-05)
(-5.56462 3.02138 0.600011)
(-5.48768 3.00649 0.6)
(-5.48688 3.00728 0.60014)
(-5.35 3.00619 3e-05)
(-5.47169 2.99036 0.600821)
(-5.4719 2.98939 0.600757)
(-5.33394 2.98855 3e-05)
(-5.47608 2.98157 0.6)
(-5.33838 2.9813 3e-05)
(-5.47529 2.98236 0.600118)
(-5.48179 3.00929 0.600793)
(-5.48176 3.00929 0.600796)
(-5.34362 3.00929 3e-05)
(-5.47637 2.9813 0.6)
(-5.33621 2.98368 3e-05)
(-5.35193 2.98516 3e-05)
(-5.33531 2.98516 3e-05)
(-5.33455 3.00179 3e-05)
(-5.33394 3.00003 3e-05)
(-5.35269 3.00179 3e-05)
(-5.3533 3.00003 3e-05)
(-5.33314 2.99442 3e-05)
(-5.33314 2.99429 3e-05)
(-5.3541 2.99429 3e-05)
(-5.33323 2.99246 3e-05)
(-5.35401 2.99233 3e-05)
(-5.33323 2.99233 3e-05)
(-5.33348 2.99054 3e-05)
(-5.35374 2.99041 3e-05)
(-5.3335 2.99041 3e-05)
(-5.33391 2.98867 3e-05)
(-5.3533 2.98855 3e-05)
(-5.35269 2.98679 3e-05)
(-5.33455 2.98679 3e-05)
(-5.54232 3.01187 0.6)
(-5.5415 3.15141 3e-05)
(-5.54229 3.01188 0.6)
(-5.53155 2.76567 3e-05)
(-5.52974 2.90578 0.600479)
(-5.53165 2.76568 3e-05)
(-5.54455 2.91755 0.6)
(-5.54418 2.77877 3e-05)
(-5.5442 2.7787 3e-05)
(-5.34091 3.00878 3e-05)
(-5.3396 3.00815 3e-05)
(-5.35193 3.00342 3e-05)
(-5.33838 3.00728 3e-05)
(-5.33732 3.00626 3e-05)
(-5.341 3.00881 3e-05)
(-5.33725 3.00619 3e-05)
(-5.35103 3.0049 3e-05)
(-5.34235 3.00917 3e-05)
(-5.34226 3.00916 3e-05)
(-5.33621 3.0049 3e-05)
(-5.33531 3.00342 3e-05)
(-5.34886 3.00728 3e-05)
(-5.34763 3.00815 3e-05)
(-5.34633 3.00878 3e-05)
(-5.34499 3.00916 3e-05)
(-5.53984 3.15194 3e-05)
(-5.3335 2.99817 3e-05)
(-5.33325 2.99638 3e-05)
(-5.35401 2.99625 3e-05)
(-5.35374 2.99817 3e-05)
(-5.33352 2.99829 3e-05)
(-5.33725 2.98239 3e-05)
(-5.3383 2.98138 3e-05)
(-5.35 2.98239 3e-05)
(-5.34886 2.9813 3e-05)
(-5.3396 2.98043 3e-05)
(-5.34763 2.98043 3e-05)
(-5.34091 2.9798 3e-05)
(-5.34216 2.97945 3e-05)
(-5.34633 2.9798 3e-05)
(-5.34226 2.97942 3e-05)
(-5.34352 2.9793 3e-05)
(-5.34499 2.97942 3e-05)
(-5.34362 2.97929 3e-05)
(-5.48622 3.00777 0.600243)
(-5.35103 2.98368 3e-05)
(-5.33323 2.99625 3e-05)
(-5.53417 3.16622 3e-05)
(-5.53759 3.02723 0.6)
(-5.53411 3.16616 3e-05)
(-5.72277 2.97874 3e-05)
(-5.58371 2.97508 0.6)
(-5.58368 2.97512 0.6)
(-5.48799 3.00619 0.6)
(-5.49226 3.01172 0.6)
(-5.48902 3.0049 0.6)
(-5.49069 3.00179 0.6)
(-5.49129 3.00003 0.6)
(-5.53785 3.0145 0.6)
(-5.49173 2.99817 0.6)
(-5.492 2.99625 0.6)
(-5.49209 2.99429 0.6)
(-5.48993 3.00342 0.6)
(-5.492 2.99233 0.6)
(-5.53787 3.01448 0.6)
(-5.49069 2.98679 0.6)
(-5.48993 2.98516 0.6)
(-5.52969 2.92663 0.6)
(-5.53165 2.92654 0.6)
(-5.49129 2.98855 0.6)
(-5.52773 2.92654 0.6)
(-5.4752 2.96146 0.6)
(-5.47673 2.95376 0.6)
(-5.48432 2.9798 0.6)
(-5.48161 2.97929 0.6)
(-5.48027 2.97942 0.6)
(-5.47469 2.96929 0.6)
(-5.48024 2.97942 0.6)
(-5.47893 2.97979 0.6)
(-5.4789 2.9798 0.6)
(-5.4752 2.97712 0.6)
(-5.4776 2.98043 0.6)
(-5.48709 2.93276 0.6)
(-5.49226 2.92686 0.6)
(-5.48799 2.98239 0.6)
(-5.52581 2.92627 0.6)
(-5.48902 2.98368 0.6)
(-5.48273 2.93929 0.6)
(-5.48685 2.9813 0.6)
(-5.47926 2.94633 0.6)
(-5.48562 2.98043 0.6)
(-5.48298 2.97942 0.6)
(-5.50469 3.02125 0.6)
(-5.53584 3.01684 0.6)
(-5.51173 3.02472 0.6)
(-5.53519 3.01812 0.6)
(-5.51916 3.02725 0.6)
(-5.53463 3.02083 0.6)
(-5.52686 3.02878 0.6)
(-5.5351 3.02355 0.6)
(-5.53569 3.02482 0.6)
(-5.53473 3.02216 0.6)
(-5.53474 3.0222 0.6)
(-5.53509 3.02351 0.6)
(-5.5357 3.02485 0.6)
(-5.53653 3.02606 0.6)
(-5.53469 3.02929 0.6)
(-5.53655 3.0261 0.6)
(-5.53762 3.02726 0.6)
(-5.53886 3.02828 0.6)
(-5.5389 3.02831 0.6)
(-5.53991 3.02895 0.6)
(-5.53478 3.01946 0.6)
(-5.53479 3.01943 0.6)
(-5.53429 3.15569 3e-05)
(-5.53674 3.01562 0.6)
(-5.5354 3.15457 3e-05)
(-5.54065 3.01261 0.6)
(-5.54068 3.0126 0.6)
(-5.49816 3.01689 0.6)
(-5.53586 3.01681 0.6)
(-5.53521 3.01809 0.6)
(-5.54406 3.0113 0.6)
(-5.54161 3.15137 3e-05)
(-5.55372 3.01104 0.6)
(-5.55369 3.01104 0.6)
(-5.57102 2.97725 0.6)
(-5.56989 2.97614 0.6)
(-5.54981 3.01061 0.6)
(-5.54785 3.01066 0.6)
(-5.56889 2.97482 0.6)
(-5.568 2.9733 0.6)
(-5.56801 2.97333 0.6)
(-5.56728 2.97169 0.6)
(-5.56727 2.97166 0.6)
(-5.5667 2.96992 0.6)
(-5.54592 3.0109 0.6)
(-5.53357 2.92627 0.6)
(-5.56164 3.01492 0.6)
(-5.57712 3.01172 0.6)
(-5.56271 3.01608 0.6)
(-5.56272 3.0161 0.6)
(-5.57122 3.01689 0.6)
(-5.56469 3.02125 0.6)
(-5.56452 3.01998 0.6)
(-5.56417 3.01866 0.6)
(-5.56416 3.01863 0.6)
(-5.56357 3.01734 0.6)
(-5.56355 3.01732 0.6)
(-5.56629 2.96806 0.6)
(-5.56606 2.96613 0.6)
(-5.5441 3.01129 0.6)
(-5.53919 3.01348 0.6)
(-5.52219 2.76699 3e-05)
(-5.52219 2.90717 0.600437)
(-5.52395 2.90657 0.600468)
(-5.56887 2.9748 0.6)
(-5.5323 3.16226 3e-05)
(-5.56987 2.97611 0.6)
(-5.54985 3.01061 0.6)
(-5.55177 3.01074 0.6)
(-5.55554 3.0115 0.6)
(-5.57221 2.97812 0.6)
(-5.57223 2.97814 0.6)
(-5.55729 3.01214 0.6)
(-5.57349 2.97878 0.6)
(-5.57352 2.97879 0.6)
(-5.55732 3.01216 0.6)
(-5.55891 3.01293 0.6)
(-5.57756 2.97925 0.6)
(-5.58665 2.99929 0.6)
(-5.57623 2.97935 0.6)
(-5.57759 2.97924 0.6)
(-5.58021 2.97829 0.6)
(-5.59012 2.99225 0.6)
(-5.57894 2.97889 0.6)
(-5.57891 2.9789 0.6)
(-5.58025 2.97828 0.6)
(-5.58149 2.97743 0.6)
(-5.58146 2.97745 0.6)
(-5.56039 3.01388 0.6)
(-5.56037 3.01386 0.6)
(-5.57483 2.97919 0.6)
(-5.58229 3.00582 0.6)
(-5.57486 2.9792 0.6)
(-5.56669 2.96989 0.6)
(-5.59265 2.98482 0.6)
(-5.58265 2.97636 0.6)
(-5.58262 2.97639 0.6)
(-5.58464 2.97362 0.6)
(-5.5854 2.97205 0.6)
(-5.59418 2.97712 0.6)
(-5.53882 2.90788 0.60021)
(-5.53882 2.76775 3e-05)
(-5.53719 2.90714 0.60029)
(-5.58542 2.97201 0.6)
(-5.58606 2.97026 0.6)
(-5.59469 2.96929 0.6)
(-5.58652 2.96846 0.6)
(-5.58654 2.96841 0.6)
(-5.51482 2.91752 0.6)
(-5.51519 2.91883 0.6)
(-5.50469 2.91733 0.6)
(-5.5152 2.91886 0.6)
(-5.51582 2.92013 0.6)
(-5.51469 2.91615 0.6)
(-5.53916 3.01349 0.6)
(-5.52219 2.92522 0.6)
(-5.52395 2.92583 0.6)
(-5.49173 2.99041 0.6)
(-5.51173 2.91386 0.6)
(-5.51469 2.91611 0.6)
(-5.51583 2.92016 0.6)
(-5.49816 2.92169 0.6)
(-5.51908 2.92356 0.6)
(-5.52056 2.92446 0.6)
(-5.51779 2.92253 0.6)
(-5.5167 2.92139 0.6)
(-5.51564 2.91253 0.6)
(-5.5152 2.91344 0.6)
(-5.51483 2.91475 0.6)
(-5.51482 2.91478 0.6)
(-5.54355 2.78007 3e-05)
(-5.54355 2.92016 0.6)
(-5.54268 2.7813 3e-05)
(-5.5715 2.95126 0.6)
(-5.57148 2.95128 0.6)
(-5.54268 2.92139 0.6)
(-5.57948 2.94992 0.6)
(-5.57945 2.94991 0.6)
(-5.58665 2.93929 0.6)
(-5.57675 2.94935 0.6)
(-5.57538 2.94946 0.6)
(-5.58229 2.93276 0.6)
(-5.5403 2.92356 0.6)
(-5.54159 2.92253 0.6)
(-5.57031 2.95234 0.6)
(-5.56928 2.95359 0.6)
(-5.56926 2.95361 0.6)
(-5.56833 2.95507 0.6)
(-5.53882 2.92446 0.6)
(-5.56755 2.95666 0.6)
(-5.53719 2.92522 0.6)
(-5.5669 2.95844 0.6)
(-5.53543 2.92583 0.6)
(-5.56754 2.95669 0.6)
(-5.56644 2.96026 0.6)
(-5.56643 2.96029 0.6)
(-5.56601 2.96413 0.6)
(-5.56613 2.96221 0.6)
(-5.56601 2.96417 0.6)
(-5.59012 2.94633 0.6)
(-5.58194 2.95145 0.6)
(-5.58077 2.95059 0.6)
(-5.58074 2.95057 0.6)
(-5.57815 2.94952 0.6)
(-5.57811 2.94951 0.6)
(-5.57678 2.94936 0.6)
(-5.57712 2.92686 0.6)
(-5.57403 2.94982 0.6)
(-5.57274 2.95041 0.6)
(-5.57406 2.94981 0.6)
(-5.57271 2.95043 0.6)
(-5.57122 2.92169 0.6)
(-5.54418 2.91886 0.6)
(-5.55765 2.91386 0.6)
(-5.54456 2.91752 0.6)
(-5.55022 2.91133 0.6)
(-5.54469 2.91615 0.6)
(-5.54456 2.91481 0.6)
(-5.54456 2.91478 0.6)
(-5.54419 2.91347 0.6)
(-5.54418 2.91344 0.6)
(-5.54355 2.91213 0.6)
(-5.54252 2.9098 0.6)
(-5.54268 2.91091 0.6)
(-5.54159 2.90977 0.6)
(-5.54162 2.9098 0.6)
(-5.54156 2.90974 0.6)
(-5.56469 2.91733 0.6)
(-5.54417 2.91889 0.6)
(-5.58696 2.96454 0.6)
(-5.59418 2.96146 0.6)
(-5.58696 2.96459 0.6)
(-5.58684 2.96649 0.6)
(-5.58691 2.96258 0.6)
(-5.58668 2.96065 0.6)
(-5.58627 2.95883 0.6)
(-5.59265 2.95376 0.6)
(-5.58626 2.95878 0.6)
(-5.58571 2.95706 0.6)
(-5.58569 2.95701 0.6)
(-5.58497 2.95541 0.6)
(-5.58495 2.95536 0.6)
(-5.5841 2.95391 0.6)
(-5.58408 2.95387 0.6)
(-5.58309 2.9526 0.6)
(-5.58307 2.95256 0.6)
(-5.58197 2.95148 0.6)
(-5.50469 3.02125 0.62)
(-5.4752 2.96146 0.62)
(-5.49816 3.01689 0.62)
(-5.49226 3.01172 0.62)
(-5.53272 3.15826 3e-05)
(-5.53274 3.15818 3e-05)
(-5.48709 3.00582 0.62)
(-5.48273 2.99929 0.62)
(-5.47926 2.99225 0.62)
(-5.4752 2.97712 0.62)
(-5.47673 2.98482 0.62)
(-5.47469 2.96929 0.62)
(-5.51173 3.02472 0.62)
(-5.54252 3.02878 0.62)
(-5.55022 3.02725 0.62)
(-5.47673 2.95376 0.62)
(-5.55765 3.02472 0.62)
(-5.52686 3.02878 0.62)
(-5.53469 3.02929 0.62)
(-5.56469 3.02125 0.62)
(-5.57122 3.01689 0.62)
(-5.57712 3.01172 0.62)
(-5.58229 3.00582 0.62)
(-5.58665 2.99929 0.62)
(-5.51916 3.02725 0.62)
(-5.59012 2.99225 0.62)
(-5.59265 2.98482 0.62)
(-5.59418 2.97712 0.62)
(-5.59469 2.96929 0.62)
(-5.47926 2.94633 0.62)
(-5.51173 2.91386 0.62)
(-5.48273 2.93929 0.62)
(-5.49816 2.92169 0.62)
(-5.49226 2.92686 0.62)
(-5.48709 2.93276 0.62)
(-5.59012 2.94633 0.62)
(-5.50469 2.91733 0.62)
(-5.53469 2.90929 0.62)
(-5.54252 2.9098 0.62)
(-5.51916 2.91133 0.62)
(-5.52686 2.9098 0.62)
(-5.57122 2.92169 0.62)