/*--------------------------------*- C++ -*----------------------------------*\
  =========                 |
  \\      /  F ield         | OpenFOAM: The Open Source CFD Toolbox
   \\    /   O peration     | Website:  https://openfoam.org
    \\  /    A nd           | Version:  12
     \\/     M anipulation  |
\*---------------------------------------------------------------------------*/
FoamFile
{
    format      ascii;
    class       featureEdgeMesh;
    location    "constant/triSurface";
    object      room.eMesh;
}
// * * * * * * * * * * * * * * * * * * * * * * * * * * * * * * * * * * * * * //


// points:

23024
(
(-7.45433 0.134521 3.35391)
(-7.45433 0.109521 3.35391)
(-7.45433 0.109521 0.353907)
(-5.45433 0.109521 0.353907)
(-5.45433 0.134521 3.35391)
(-5.45433 0.109521 3.35391)
(-3.35433 0.134521 3.35391)
(-3.35433 0.109521 3.35391)
(-1.35433 0.109521 0.353907)
(-3.35433 0.109521 0.353907)
(-1.35433 0.134521 3.35391)
(-1.35433 0.109521 3.35391)
(-0.0324379 10.1432 -0.00619868)
(0.0675621 10.1432 -0.00619868)
(-0.0324379 11.1432 -0.00619868)
(0.0675621 11.1432 -0.00619868)
(0.0675621 0.113189 -0.00619868)
(-0.0324379 0.113189 -0.00619868)
(-0.0324379 11.8764 -0.00619868)
(0.0675621 11.8764 -0.00619868)
(-0.0324379 11.8764 3.99112)
(-0.0324379 0.113189 3.99112)
(0.0675621 0.113189 3.99112)
(0.0675621 11.8764 3.99112)
(-0.0324379 11.8632 3.99112)
(-0.0324379 11.9902 3.99112)
(-8.75944 11.9902 3.99112)
(-2.25519 11.8714 0.785569)
(-2.25519 11.3214 0.835569)
(-2.25519 11.3214 0.785569)
(-6.95519 11.8714 0.785569)
(-6.95519 11.3214 0.835569)
(-6.95519 11.8714 2.83557)
(-6.95519 11.5714 2.83557)
(-0.0324379 -0.0138107 3.99112)
(-8.63244 -0.0138107 3.99112)
(-8.75944 0.113189 3.99112)
(-6.95519 11.3214 0.785569)
(-8.75944 0.113189 -0.00887881)
(-8.75944 11.9902 -0.00887881)
(-0.0324379 11.9902 -0.00887881)
(-8.63244 -0.0138107 -0.00887881)
(-0.0324379 -0.0138107 -0.00887881)
(-2.25519 11.8714 2.83557)
(-2.25519 11.5714 2.83557)
(-2.92112 11.8622 0.141121)
(-6.22112 11.8622 0.141121)
(-2.92112 10.1722 0.141121)
(-6.22112 10.1722 0.141121)
(-7.93344 9.96319 0.891121)
(-5.11172 8.81728 0.0411212)
(-5.06173 8.81728 0.0411212)
(-7.03673 9.40728 0.991121)
(-7.03673 8.81728 0.0411212)
(-7.03673 8.81728 0.991121)
(-7.03673 8.81728 0.791121)
(-5.06173 9.40728 0.991121)
(-5.06173 8.81728 0.791121)
(-5.06173 8.81728 0.991121)
(-7.01975 7.99385 0.991121)
(-5.04475 7.40385 0.791121)
(-5.04475 7.40385 0.991121)
(-7.01975 7.40385 0.0411212)
(-7.01975 7.40385 0.991121)
(-7.01975 7.40385 0.791121)
(-5.09475 7.40385 0.0411212)
(-5.04475 7.40385 0.0411212)
(-5.04475 7.99385 0.991121)
(-7.0151 6.50698 0.991121)
(-5.0401 5.91698 0.791121)
(-5.0401 5.91698 0.991121)
(-7.0151 5.91698 0.0411212)
(-7.0151 5.91698 0.991121)
(-7.0151 5.91698 0.791121)
(-5.0901 5.91698 0.0411212)
(-5.0401 5.91698 0.0411212)
(-5.0401 6.50698 0.991121)
(-7.02884 5.12313 0.991121)
(-5.05384 4.53313 0.791121)
(-5.05384 4.53313 0.991121)
(-7.02884 4.53313 0.0411212)
(-7.02884 4.53313 0.991121)
(-7.02884 4.53313 0.791121)
(-5.10384 4.53313 0.0411212)
(-5.05384 4.53313 0.0411212)
(-5.05384 5.12313 0.991121)
(-3.58244 9.42218 0.991121)
(-1.60744 8.83218 0.791121)
(-1.60744 8.83218 0.991121)
(-3.58244 8.83218 0.0411212)
(-3.58244 8.83218 0.991121)
(-3.58244 8.83218 0.791121)
(-1.65744 8.83218 0.0411212)
(-1.60744 8.83218 0.0411212)
(-1.60744 9.42218 0.991121)
(-3.57307 7.99927 0.991121)
(-1.59807 7.40927 0.791121)
(-1.59807 7.40927 0.991121)
(-3.57307 7.40927 0.0411212)
(-3.57307 7.40927 0.991121)
(-3.57307 7.40927 0.791121)
(-1.64806 7.40927 0.0411212)
(-1.59807 7.40927 0.0411212)
(-1.59807 7.99927 0.991121)
(-3.59762 6.56079 0.991121)
(-1.62262 5.97079 0.791121)
(-1.62262 5.97079 0.991121)
(-3.59762 5.97079 0.0411212)
(-3.59762 5.97079 0.991121)
(-3.59762 5.97079 0.791121)
(-1.67262 5.97079 0.0411212)
(-1.62262 5.97079 0.0411212)
(-1.62262 6.56079 0.991121)
(-3.58842 5.12839 0.991121)
(-1.61342 4.53839 0.791121)
(-1.61342 4.53839 0.991121)
(-3.58842 4.53839 0.0411212)
(-3.58842 4.53839 0.991121)
(-3.58842 4.53839 0.791121)
(-1.66342 4.53839 0.0411212)
(-1.61342 4.53839 0.0411212)
(-1.61342 5.12839 0.991121)
(-7.05075 3.79398 0.991121)
(-5.07575 3.20398 0.791121)
(-5.07575 3.20398 0.991121)
(-7.05075 3.20398 0.0411212)
(-7.05075 3.20398 0.991121)
(-7.05075 3.20398 0.791121)
(-5.12575 3.20398 0.0411212)
(-5.07575 3.20398 0.0411212)
(-5.07575 3.79398 0.991121)
(-3.59214 3.78057 0.991121)
(-1.61714 3.19057 0.791121)
(-1.61714 3.19057 0.991121)
(-3.59214 3.19057 0.0411212)
(-3.59214 3.19057 0.991121)
(-3.59214 3.19057 0.791121)
(-1.66714 3.19057 0.0411212)
(-1.61714 3.19057 0.0411212)
(-1.61714 3.78057 0.991121)
(-3.54953 10.3709 1.14112)
(-5.52453 10.9609 0.941121)
(-5.52453 10.9609 1.14112)
(-3.54953 10.9609 0.191121)
(-3.54953 10.9609 1.14112)
(-3.54953 10.9609 0.941121)
(-5.47453 10.9609 0.191121)
(-5.52453 10.9609 0.191121)
(-5.52453 10.3709 1.14112)
(-6.45433 0.145715 3.33251)
(-6.45433 0.134521 3.35391)
(-7.45433 0.134521 2.35391)
(-6.45433 0.134521 2.35391)
(-6.45433 0.143432 2.35408)
(-6.45433 0.151566 2.35507)
(-6.45433 0.158923 2.35688)
(-6.45433 0.165506 2.3595)
(-6.45433 0.171316 2.36292)
(-6.45433 0.176358 2.36715)
(-6.45433 0.18064 2.37216)
(-6.45433 0.184173 2.37794)
(-6.45433 0.186971 2.38446)
(-6.45433 0.189052 2.3917)
(-6.45433 0.190442 2.39961)
(-6.45433 0.191265 2.41726)
(-6.45433 0.190774 2.42688)
(-6.45433 0.18974 2.43692)
(-6.45433 0.188213 2.44733)
(-6.45433 0.183905 2.4689)
(-6.45433 0.178342 2.49089)
(-6.45433 0.172082 2.51257)
(-6.45433 0.165746 2.53325)
(-6.45433 0.162758 2.54299)
(-6.45433 0.160008 2.55222)
(-6.45433 0.157586 2.56087)
(-6.45433 0.155587 2.56887)
(-6.45433 0.154103 2.57615)
(-6.45433 0.153216 2.58268)
(-6.45433 0.152998 2.58842)
(-6.45433 0.153503 2.59336)
(-6.45433 0.154757 2.59755)
(-6.45433 0.15676 2.60102)
(-6.45433 0.159476 2.60387)
(-6.45433 0.162827 2.60624)
(-6.45433 0.170919 2.61025)
(-6.45433 0.179728 2.61477)
(-6.45433 0.18393 2.61779)
(-6.45433 0.187753 2.62159)
(-6.45433 0.191041 2.62633)
(-6.45433 0.19367 2.63212)
(-6.45433 0.195555 2.63902)
(-6.45433 0.196645 2.64704)
(-6.45433 0.196399 2.66624)
(-6.45433 0.195111 2.67725)
(-6.45433 0.193118 2.68902)
(-6.45433 0.190501 2.7014)
(-6.45433 0.187356 2.71421)
(-6.45433 0.179926 2.74038)
(-6.45433 0.17181 2.76601)
(-6.45433 0.16782 2.77817)
(-6.45433 0.164049 2.78966)
(-6.45433 0.16062 2.80037)
(-6.45433 0.157648 2.81016)
(-6.45433 0.155238 2.81898)
(-6.45433 0.153477 2.82676)
(-6.45433 0.152437 2.83351)
(-6.45433 0.152169 2.83923)
(-6.45433 0.1527 2.844)
(-6.45433 0.154032 2.84789)
(-6.45433 0.154991 2.84953)
(-6.45433 0.156138 2.85101)
(-6.45433 0.158958 2.85352)
(-6.45433 0.162397 2.85558)
(-6.45433 0.166325 2.85741)
(-6.45433 0.174994 2.86123)
(-6.45433 0.179369 2.86368)
(-6.45433 0.183523 2.86678)
(-6.45433 0.187281 2.87071)
(-6.45433 0.190495 2.87561)
(-6.45433 0.193047 2.88158)
(-6.45433 0.194855 2.88867)
(-6.45433 0.195874 2.89687)
(-6.45433 0.195526 2.91638)
(-6.45433 0.194218 2.92749)
(-6.45433 0.19223 2.93932)
(-6.45433 0.189647 2.9517)
(-6.45433 0.183099 2.97741)
(-6.45433 0.175482 3.00311)
(-6.45433 0.171584 3.01551)
(-6.45433 0.167793 3.02737)
(-6.45433 0.164229 3.03855)
(-6.45433 0.161005 3.04893)
(-6.45433 0.158222 3.05843)
(-6.45433 0.155966 3.06699)
(-6.45433 0.154307 3.07459)
(-6.45433 0.153297 3.08126)
(-6.45433 0.152972 3.08704)
(-6.45433 0.153349 3.092)
(-6.45433 0.154426 3.09623)
(-6.45433 0.156183 3.09984)
(-6.45433 0.15858 3.10295)
(-6.45433 0.161555 3.10568)
(-6.45433 0.168906 3.1105)
(-6.45433 0.177405 3.11529)
(-6.45433 0.186078 3.12102)
(-6.45433 0.190169 3.12451)
(-6.45433 0.193943 3.12854)
(-6.45433 0.197296 3.13319)
(-6.45433 0.200137 3.13855)
(-6.45433 0.202385 3.14468)
(-6.45433 0.203968 3.15163)
(-6.45433 0.204826 3.15947)
(-6.45433 0.204159 3.17794)
(-6.45433 0.20255 3.18865)
(-6.45433 0.200046 3.20038)
(-6.45433 0.196622 3.21315)
(-6.45433 0.192258 3.22696)
(-6.45433 0.186939 3.24185)
(-6.45433 0.180652 3.25781)
(-6.45433 0.17339 3.27486)
(-6.45433 0.165148 3.29299)
(-6.45433 0.155924 3.3122)
(-7.45433 0.109521 2.35391)
(-6.45433 0.109521 2.35391)
(-6.45433 0.109521 3.35391)
(-6.45433 0.145715 2.33251)
(-7.45433 0.134521 1.35391)
(-6.45433 0.134521 1.35391)
(-6.45433 0.143432 1.35408)
(-6.45433 0.151566 1.35507)
(-6.45433 0.158923 1.35688)
(-6.45433 0.165506 1.3595)
(-6.45433 0.171316 1.36292)
(-6.45433 0.176358 1.36715)
(-6.45433 0.18064 1.37216)
(-6.45433 0.184173 1.37794)
(-6.45433 0.186971 1.38446)
(-6.45433 0.189052 1.3917)
(-6.45433 0.190442 1.39961)
(-6.45433 0.191265 1.41726)
(-6.45433 0.190774 1.42687)
(-6.45433 0.18974 1.43692)
(-6.45433 0.188213 1.44733)
(-6.45433 0.183905 1.4689)
(-6.45433 0.178342 1.49089)
(-6.45433 0.172082 1.51257)
(-6.45433 0.165746 1.53325)
(-6.45433 0.162758 1.54299)
(-6.45433 0.160008 1.55222)
(-6.45433 0.157586 1.56087)
(-6.45433 0.155587 1.56887)
(-6.45433 0.154103 1.57615)
(-6.45433 0.153216 1.58268)
(-6.45433 0.152998 1.58842)
(-6.45433 0.153503 1.59336)
(-6.45433 0.154757 1.59755)
(-6.45433 0.15676 1.60102)
(-6.45433 0.159476 1.60387)
(-6.45433 0.162827 1.60624)
(-6.45433 0.170919 1.61025)
(-6.45433 0.179728 1.61477)
(-6.45433 0.18393 1.61779)
(-6.45433 0.187753 1.62159)
(-6.45433 0.191041 1.62633)
(-6.45433 0.19367 1.63212)
(-6.45433 0.195555 1.63902)
(-6.45433 0.196645 1.64704)
(-6.45433 0.196399 1.66624)
(-6.45433 0.195111 1.67725)
(-6.45433 0.193118 1.68902)
(-6.45433 0.190501 1.7014)
(-6.45433 0.187356 1.71421)
(-6.45433 0.179926 1.74038)
(-6.45433 0.17181 1.76601)
(-6.45433 0.16782 1.77817)
(-6.45433 0.164049 1.78966)
(-6.45433 0.16062 1.80037)
(-6.45433 0.157648 1.81016)
(-6.45433 0.155238 1.81898)
(-6.45433 0.153477 1.82676)
(-6.45433 0.152437 1.83351)
(-6.45433 0.152169 1.83923)
(-6.45433 0.1527 1.844)
(-6.45433 0.154032 1.84789)
(-6.45433 0.154991 1.84953)
(-6.45433 0.156138 1.85101)
(-6.45433 0.158958 1.85352)
(-6.45433 0.162397 1.85558)
(-6.45433 0.166325 1.85741)
(-6.45433 0.174994 1.86123)
(-6.45433 0.179369 1.86369)
(-6.45433 0.183523 1.86678)
(-6.45433 0.187281 1.87071)
(-6.45433 0.190495 1.87561)
(-6.45433 0.193047 1.88158)
(-6.45433 0.194855 1.88867)
(-6.45433 0.195874 1.89687)
(-6.45433 0.195526 1.91638)
(-6.45433 0.194218 1.92749)
(-6.45433 0.19223 1.93932)
(-6.45433 0.189647 1.9517)
(-6.45433 0.183099 1.9774)
(-6.45433 0.175482 2.00311)
(-6.45433 0.171584 2.01551)
(-6.45433 0.167793 2.02737)
(-6.45433 0.164229 2.03855)
(-6.45433 0.161005 2.04893)
(-6.45433 0.158222 2.05843)
(-6.45433 0.155966 2.06699)
(-6.45433 0.154307 2.07459)
(-6.45433 0.153297 2.08126)
(-6.45433 0.152972 2.08704)
(-6.45433 0.153349 2.092)
(-6.45433 0.154426 2.09623)
(-6.45433 0.156183 2.09984)
(-6.45433 0.15858 2.10295)
(-6.45433 0.161555 2.10568)
(-6.45433 0.168906 2.1105)
(-6.45433 0.177405 2.11529)
(-6.45433 0.186078 2.12102)
(-6.45433 0.190169 2.12451)
(-6.45433 0.193943 2.12854)
(-6.45433 0.197296 2.13319)
(-6.45433 0.200137 2.13855)
(-6.45433 0.202385 2.14468)
(-6.45433 0.203968 2.15163)
(-6.45433 0.204826 2.15947)
(-6.45433 0.204159 2.17794)
(-6.45433 0.20255 2.18865)
(-6.45433 0.200046 2.20038)
(-6.45433 0.196622 2.21315)
(-6.45433 0.192258 2.22696)
(-6.45433 0.186939 2.24185)
(-6.45433 0.180652 2.25781)
(-6.45433 0.17339 2.27486)
(-6.45433 0.165148 2.29299)
(-6.45433 0.155924 2.3122)
(-7.45433 0.109521 1.35391)
(-6.45433 0.109521 1.35391)
(-6.45433 0.145715 1.33251)
(-6.45433 0.134521 0.353907)
(-6.45433 0.143432 0.354082)
(-6.45433 0.151566 0.355073)
(-6.45433 0.158923 0.356879)
(-6.45433 0.165506 0.359497)
(-6.45433 0.171316 0.362923)
(-6.45433 0.176358 0.367148)
(-6.45433 0.18064 0.372159)
(-6.45433 0.184173 0.377939)
(-6.45433 0.186971 0.384463)
(-6.45433 0.189052 0.391701)
(-6.45433 0.190442 0.399614)
(-6.45433 0.191265 0.41726)
(-6.45433 0.190774 0.426875)
(-6.45433 0.18974 0.436924)
(-6.45433 0.188213 0.447333)
(-6.45433 0.183905 0.468898)
(-6.45433 0.178342 0.490885)
(-6.45433 0.172082 0.512574)
(-6.45433 0.165746 0.533248)
(-6.45433 0.162758 0.542988)
(-6.45433 0.160008 0.552221)
(-6.45433 0.157586 0.560871)
(-6.45433 0.155587 0.568869)
(-6.45433 0.154103 0.576153)
(-6.45433 0.153216 0.582678)
(-6.45433 0.152998 0.588417)
(-6.45433 0.153503 0.593365)
(-6.45433 0.154757 0.597547)
(-6.45433 0.15676 0.601017)
(-6.45433 0.159476 0.603868)
(-6.45433 0.162827 0.606235)
(-6.45433 0.170919 0.610252)
(-6.45433 0.179728 0.614775)
(-6.45433 0.18393 0.617795)
(-6.45433 0.187753 0.621593)
(-6.45433 0.191041 0.626331)
(-6.45433 0.19367 0.63212)
(-6.45433 0.195555 0.639019)
(-6.45433 0.196645 0.647036)
(-6.45433 0.196399 0.666245)
(-6.45433 0.195111 0.677252)
(-6.45433 0.193118 0.689024)
(-6.45433 0.190501 0.701402)
(-6.45433 0.187356 0.714213)
(-6.45433 0.179926 0.740382)
(-6.45433 0.17181 0.766011)
(-6.45433 0.16782 0.778166)
(-6.45433 0.164049 0.789664)
(-6.45433 0.16062 0.800366)
(-6.45433 0.157648 0.810162)
(-6.45433 0.155238 0.818976)
(-6.45433 0.153477 0.82676)
(-6.45433 0.152437 0.833506)
(-6.45433 0.152169 0.839234)
(-6.45433 0.1527 0.843999)
(-6.45433 0.154032 0.847886)
(-6.45433 0.154991 0.849535)
(-6.45433 0.156138 0.85101)
(-6.45433 0.158958 0.853517)
(-6.45433 0.162397 0.855583)
(-6.45433 0.166325 0.857409)
(-6.45433 0.174994 0.861234)
(-6.45433 0.179369 0.863685)
(-6.45433 0.183523 0.866782)
(-6.45433 0.187281 0.870708)
(-6.45433 0.190495 0.875609)
(-6.45433 0.193047 0.88158)
(-6.45433 0.194855 0.888669)
(-6.45433 0.195874 0.896872)
(-6.45433 0.195526 0.916384)
(-6.45433 0.194218 0.927491)
(-6.45433 0.19223 0.939318)
(-6.45433 0.189647 0.951699)
(-6.45433 0.183099 0.977405)
(-6.45433 0.175482 1.00311)
(-6.45433 0.171584 1.01551)
(-6.45433 0.167793 1.02737)
(-6.45433 0.164229 1.03855)
(-6.45433 0.161005 1.04893)
(-6.45433 0.158222 1.05843)
(-6.45433 0.155966 1.06699)
(-6.45433 0.154307 1.07459)
(-6.45433 0.153297 1.08126)
(-6.45433 0.152972 1.08704)
(-6.45433 0.153349 1.092)
(-6.45433 0.154426 1.09623)
(-6.45433 0.156183 1.09985)
(-6.45433 0.15858 1.10295)
(-6.45433 0.161555 1.10568)
(-6.45433 0.168906 1.11049)
(-6.45433 0.177405 1.1153)
(-6.45433 0.186078 1.12102)
(-6.45433 0.190169 1.12451)
(-6.45433 0.193943 1.12854)
(-6.45433 0.197296 1.13319)
(-6.45433 0.200137 1.13855)
(-6.45433 0.202385 1.14468)
(-6.45433 0.203968 1.15163)
(-6.45433 0.204826 1.15947)
(-6.45433 0.204159 1.17794)
(-6.45433 0.20255 1.18865)
(-6.45433 0.200046 1.20038)
(-6.45433 0.196622 1.21315)
(-6.45433 0.192258 1.22696)
(-6.45433 0.186939 1.24185)
(-6.45433 0.180652 1.25781)
(-6.45433 0.17339 1.27486)
(-6.45433 0.165148 1.29299)
(-6.45433 0.155924 1.3122)
(-6.45433 0.109521 0.353907)
(-5.45433 0.134521 1.35391)
(-5.45433 0.109521 1.35391)
(-5.45433 0.134521 2.35391)
(-5.45433 0.109521 2.35391)
(-2.35433 0.145715 3.33251)
(-2.35433 0.134521 3.35391)
(-3.35433 0.134521 2.35391)
(-2.35433 0.134521 2.35391)
(-2.35433 0.143432 2.35408)
(-2.35433 0.151566 2.35507)
(-2.35433 0.158923 2.35688)
(-2.35433 0.165506 2.3595)
(-2.35433 0.171316 2.36292)
(-2.35433 0.176358 2.36715)
(-2.35433 0.18064 2.37216)
(-2.35433 0.184173 2.37794)
(-2.35433 0.186971 2.38446)
(-2.35433 0.189052 2.3917)
(-2.35433 0.190442 2.39961)
(-2.35433 0.191265 2.41726)
(-2.35433 0.190774 2.42688)
(-2.35433 0.18974 2.43692)
(-2.35433 0.188213 2.44733)
(-2.35433 0.183905 2.4689)
(-2.35433 0.178342 2.49089)
(-2.35433 0.172082 2.51257)
(-2.35433 0.165746 2.53325)
(-2.35433 0.162758 2.54299)
(-2.35433 0.160008 2.55222)
(-2.35433 0.157586 2.56087)
(-2.35433 0.155587 2.56887)
(-2.35433 0.154103 2.57615)
(-2.35433 0.153216 2.58268)
(-2.35433 0.152998 2.58842)
(-2.35433 0.153503 2.59336)
(-2.35433 0.154757 2.59755)
(-2.35433 0.15676 2.60102)
(-2.35433 0.159476 2.60387)
(-2.35433 0.162827 2.60624)
(-2.35433 0.170919 2.61025)
(-2.35433 0.179728 2.61477)
(-2.35433 0.18393 2.61779)
(-2.35433 0.187753 2.62159)
(-2.35433 0.191041 2.62633)
(-2.35433 0.19367 2.63212)
(-2.35433 0.195555 2.63902)
(-2.35433 0.196645 2.64704)
(-2.35433 0.196399 2.66624)
(-2.35433 0.195111 2.67725)
(-2.35433 0.193118 2.68902)
(-2.35433 0.190501 2.7014)
(-2.35433 0.187356 2.71421)
(-2.35433 0.179926 2.74038)
(-2.35433 0.17181 2.76601)
(-2.35433 0.16782 2.77817)
(-2.35433 0.164049 2.78966)
(-2.35433 0.16062 2.80037)
(-2.35433 0.157648 2.81016)
(-2.35433 0.155238 2.81898)
(-2.35433 0.153477 2.82676)
(-2.35433 0.152437 2.83351)
(-2.35433 0.152169 2.83923)
(-2.35433 0.1527 2.844)
(-2.35433 0.154032 2.84789)
(-2.35433 0.154991 2.84953)
(-2.35433 0.156138 2.85101)
(-2.35433 0.158958 2.85352)
(-2.35433 0.162397 2.85558)
(-2.35433 0.166325 2.85741)
(-2.35433 0.174994 2.86123)
(-2.35433 0.179369 2.86368)
(-2.35433 0.183523 2.86678)
(-2.35433 0.187281 2.87071)
(-2.35433 0.190495 2.87561)
(-2.35433 0.193047 2.88158)
(-2.35433 0.194855 2.88867)
(-2.35433 0.195874 2.89687)
(-2.35433 0.195526 2.91638)
(-2.35433 0.194218 2.92749)
(-2.35433 0.19223 2.93932)
(-2.35433 0.189647 2.9517)
(-2.35433 0.183099 2.97741)
(-2.35433 0.175482 3.00311)
(-2.35433 0.171584 3.01551)
(-2.35433 0.167793 3.02737)
(-2.35433 0.164229 3.03855)
(-2.35433 0.161005 3.04893)
(-2.35433 0.158222 3.05843)
(-2.35433 0.155966 3.06699)
(-2.35433 0.154307 3.07459)
(-2.35433 0.153297 3.08126)
(-2.35433 0.152972 3.08704)
(-2.35433 0.153349 3.092)
(-2.35433 0.154426 3.09623)
(-2.35433 0.156183 3.09984)
(-2.35433 0.15858 3.10295)
(-2.35433 0.161555 3.10568)
(-2.35433 0.168906 3.1105)
(-2.35433 0.177405 3.11529)
(-2.35433 0.186078 3.12102)
(-2.35433 0.190169 3.12451)
(-2.35433 0.193943 3.12854)
(-2.35433 0.197296 3.13319)
(-2.35433 0.200137 3.13855)
(-2.35433 0.202385 3.14468)
(-2.35433 0.203968 3.15163)
(-2.35433 0.204826 3.15947)
(-2.35433 0.204159 3.17794)
(-2.35433 0.20255 3.18865)
(-2.35433 0.200046 3.20038)
(-2.35433 0.196622 3.21315)
(-2.35433 0.192258 3.22696)
(-2.35433 0.186939 3.24185)
(-2.35433 0.180652 3.25781)
(-2.35433 0.17339 3.27486)
(-2.35433 0.165148 3.29299)
(-2.35433 0.155924 3.3122)
(-3.35433 0.109521 2.35391)
(-2.35433 0.109521 2.35391)
(-2.35433 0.109521 3.35391)
(-2.35433 0.145715 2.33251)
(-3.35433 0.134521 1.35391)
(-2.35433 0.134521 1.35391)
(-2.35433 0.143432 1.35408)
(-2.35433 0.151566 1.35507)
(-2.35433 0.158923 1.35688)
(-2.35433 0.165506 1.3595)
(-2.35433 0.171316 1.36292)
(-2.35433 0.176358 1.36715)
(-2.35433 0.18064 1.37216)
(-2.35433 0.184173 1.37794)
(-2.35433 0.186971 1.38446)
(-2.35433 0.189052 1.3917)
(-2.35433 0.190442 1.39961)
(-2.35433 0.191265 1.41726)
(-2.35433 0.190774 1.42687)
(-2.35433 0.18974 1.43692)
(-2.35433 0.188213 1.44733)
(-2.35433 0.183905 1.4689)
(-2.35433 0.178342 1.49089)
(-2.35433 0.172082 1.51257)
(-2.35433 0.165746 1.53325)
(-2.35433 0.162758 1.54299)
(-2.35433 0.160008 1.55222)
(-2.35433 0.157586 1.56087)
(-2.35433 0.155587 1.56887)
(-2.35433 0.154103 1.57615)
(-2.35433 0.153216 1.58268)
(-2.35433 0.152998 1.58842)
(-2.35433 0.153503 1.59336)
(-2.35433 0.154757 1.59755)
(-2.35433 0.15676 1.60102)
(-2.35433 0.159476 1.60387)
(-2.35433 0.162827 1.60624)
(-2.35433 0.170919 1.61025)
(-2.35433 0.179728 1.61477)
(-2.35433 0.18393 1.61779)
(-2.35433 0.187753 1.62159)
(-2.35433 0.191041 1.62633)
(-2.35433 0.19367 1.63212)
(-2.35433 0.195555 1.63902)
(-2.35433 0.196645 1.64704)
(-2.35433 0.196399 1.66624)
(-2.35433 0.195111 1.67725)
(-2.35433 0.193118 1.68902)
(-2.35433 0.190501 1.7014)
(-2.35433 0.187356 1.71421)
(-2.35433 0.179926 1.74038)
(-2.35433 0.17181 1.76601)
(-2.35433 0.16782 1.77817)
(-2.35433 0.164049 1.78966)
(-2.35433 0.16062 1.80037)
(-2.35433 0.157648 1.81016)
(-2.35433 0.155238 1.81898)
(-2.35433 0.153477 1.82676)
(-2.35433 0.152437 1.83351)
(-2.35433 0.152169 1.83923)
(-2.35433 0.1527 1.844)
(-2.35433 0.154032 1.84789)
(-2.35433 0.154991 1.84953)
(-2.35433 0.156138 1.85101)
(-2.35433 0.158958 1.85352)
(-2.35433 0.162397 1.85558)
(-2.35433 0.166325 1.85741)
(-2.35433 0.174994 1.86123)
(-2.35433 0.179369 1.86369)
(-2.35433 0.183523 1.86678)
(-2.35433 0.187281 1.87071)
(-2.35433 0.190495 1.87561)
(-2.35433 0.193047 1.88158)
(-2.35433 0.194855 1.88867)
(-2.35433 0.195874 1.89687)
(-2.35433 0.195526 1.91638)
(-2.35433 0.194218 1.92749)
(-2.35433 0.19223 1.93932)
(-2.35433 0.189647 1.9517)
(-2.35433 0.183099 1.9774)
(-2.35433 0.175482 2.00311)
(-2.35433 0.171584 2.01551)
(-2.35433 0.167793 2.02737)
(-2.35433 0.164229 2.03855)
(-2.35433 0.161005 2.04893)
(-2.35433 0.158222 2.05843)
(-2.35433 0.155966 2.06699)
(-2.35433 0.154307 2.07459)
(-2.35433 0.153297 2.08126)
(-2.35433 0.152972 2.08704)
(-2.35433 0.153349 2.092)
(-2.35433 0.154426 2.09623)
(-2.35433 0.156183 2.09984)
(-2.35433 0.15858 2.10295)
(-2.35433 0.161555 2.10568)
(-2.35433 0.168906 2.1105)
(-2.35433 0.177405 2.11529)
(-2.35433 0.186078 2.12102)
(-2.35433 0.190169 2.12451)
(-2.35433 0.193943 2.12854)
(-2.35433 0.197296 2.13319)
(-2.35433 0.200137 2.13855)
(-2.35433 0.202385 2.14468)
(-2.35433 0.203968 2.15163)
(-2.35433 0.204826 2.15947)
(-2.35433 0.204159 2.17794)
(-2.35433 0.20255 2.18865)
(-2.35433 0.200046 2.20038)
(-2.35433 0.196622 2.21315)
(-2.35433 0.192258 2.22696)
(-2.35433 0.186939 2.24185)
(-2.35433 0.180652 2.25781)
(-2.35433 0.17339 2.27486)
(-2.35433 0.165148 2.29299)
(-2.35433 0.155924 2.3122)
(-3.35433 0.109521 1.35391)
(-2.35433 0.109521 1.35391)
(-1.35433 0.134521 1.35391)
(-2.35433 0.145715 1.33251)
(-2.35433 0.155924 1.3122)
(-2.35433 0.165148 1.29299)
(-2.35433 0.17339 1.27486)
(-2.35433 0.180652 1.25781)
(-2.35433 0.186939 1.24185)
(-2.35433 0.192258 1.22696)
(-2.35433 0.196622 1.21315)
(-2.35433 0.200046 1.20038)
(-2.35433 0.20255 1.18865)
(-2.35433 0.204159 1.17794)
(-2.35433 0.204826 1.15947)
(-2.35433 0.203968 1.15163)
(-2.35433 0.202385 1.14468)
(-2.35433 0.200137 1.13855)
(-2.35433 0.197296 1.13319)
(-2.35433 0.193943 1.12854)
(-2.35433 0.190169 1.12451)
(-2.35433 0.186078 1.12102)
(-2.35433 0.177405 1.1153)
(-2.35433 0.168906 1.11049)
(-2.35433 0.161555 1.10568)
(-2.35433 0.15858 1.10295)
(-2.35433 0.156183 1.09985)
(-2.35433 0.154426 1.09623)
(-2.35433 0.153349 1.092)
(-2.35433 0.152972 1.08704)
(-2.35433 0.153297 1.08126)
(-2.35433 0.154307 1.07459)
(-2.35433 0.155966 1.06699)
(-2.35433 0.158222 1.05843)
(-2.35433 0.161005 1.04893)
(-2.35433 0.164229 1.03855)
(-2.35433 0.167793 1.02737)
(-2.35433 0.171584 1.01551)
(-2.35433 0.175482 1.00311)
(-2.35433 0.183099 0.977405)
(-2.35433 0.189647 0.951699)
(-2.35433 0.19223 0.939318)
(-2.35433 0.194218 0.927491)
(-2.35433 0.195526 0.916384)
(-2.35433 0.195874 0.896872)
(-2.35433 0.194855 0.888669)
(-2.35433 0.193047 0.88158)
(-2.35433 0.190495 0.875609)
(-2.35433 0.187281 0.870708)
(-2.35433 0.183523 0.866782)
(-2.35433 0.179369 0.863685)
(-2.35433 0.174994 0.861234)
(-2.35433 0.166325 0.857409)
(-2.35433 0.162397 0.855583)
(-2.35433 0.158958 0.853517)
(-2.35433 0.156138 0.85101)
(-2.35433 0.154991 0.849535)
(-2.35433 0.154032 0.847886)
(-2.35433 0.1527 0.843999)
(-2.35433 0.152169 0.839234)
(-2.35433 0.152437 0.833506)
(-2.35433 0.153477 0.82676)
(-2.35433 0.155238 0.818976)
(-2.35433 0.157648 0.810162)
(-2.35433 0.16062 0.800366)
(-2.35433 0.164049 0.789664)
(-2.35433 0.16782 0.778166)
(-2.35433 0.17181 0.766011)
(-2.35433 0.179926 0.740382)
(-2.35433 0.187356 0.714213)
(-2.35433 0.190501 0.701402)
(-2.35433 0.193118 0.689024)
(-2.35433 0.195111 0.677252)
(-2.35433 0.196399 0.666245)
(-2.35433 0.196645 0.647036)
(-2.35433 0.195555 0.639019)
(-2.35433 0.19367 0.63212)
(-2.35433 0.191041 0.626331)
(-2.35433 0.187753 0.621593)
(-2.35433 0.18393 0.617795)
(-2.35433 0.179728 0.614775)
(-2.35433 0.170919 0.610252)
(-2.35433 0.162827 0.606235)
(-2.35433 0.159476 0.603868)
(-2.35433 0.15676 0.601017)
(-2.35433 0.154757 0.597547)
(-2.35433 0.153503 0.593365)
(-2.35433 0.152998 0.588417)
(-2.35433 0.153216 0.582678)
(-2.35433 0.154103 0.576153)
(-2.35433 0.155587 0.568869)
(-2.35433 0.157586 0.560871)
(-2.35433 0.160008 0.552221)
(-2.35433 0.162758 0.542988)
(-2.35433 0.165746 0.533248)
(-2.35433 0.172082 0.512574)
(-2.35433 0.178342 0.490885)
(-2.35433 0.183905 0.468898)
(-2.35433 0.188213 0.447333)
(-2.35433 0.18974 0.436924)
(-2.35433 0.190774 0.426875)
(-2.35433 0.191265 0.41726)
(-2.35433 0.190442 0.399614)
(-2.35433 0.189052 0.391701)
(-2.35433 0.186971 0.384463)
(-2.35433 0.184173 0.377939)
(-2.35433 0.18064 0.372159)
(-2.35433 0.176358 0.367148)
(-2.35433 0.171316 0.362923)
(-2.35433 0.165506 0.359497)
(-2.35433 0.158923 0.356879)
(-2.35433 0.151566 0.355073)
(-2.35433 0.143432 0.354082)
(-2.35433 0.134521 0.353907)
(-2.35433 0.109521 0.353907)
(-1.35433 0.109521 1.35391)
(-1.35433 0.134521 2.35391)
(-1.35433 0.109521 2.35391)
(-0.0324379 10.1432 1.9938)
(0.0675621 10.1432 1.9938)
(-0.0324379 11.1432 1.9938)
(0.0675621 11.1432 1.9938)
(-8.63244 11.8632 3.99112)
(-8.75944 11.8632 3.99112)
(-6.95519 11.8714 0.835569)
(-6.95519 11.5714 0.835569)
(-2.25519 11.8714 0.835569)
(-2.25519 11.5714 0.835569)
(-5.11172 9.40728 0.991121)
(-6.98673 9.40728 0.991121)
(-6.98673 8.81728 0.991121)
(-5.11172 8.81728 0.991121)
(-5.11172 9.11728 0.991121)
(-8.63244 0.113189 3.99112)
(-1.66714 3.78057 -0.00887881)
(-1.66342 4.53839 -0.00887881)
(-1.61714 3.78057 -0.00887881)
(-1.66342 5.12839 -0.00887881)
(-1.61342 4.53839 -0.00887881)
(-1.61714 3.19057 -0.00887881)
(-1.67262 6.56079 -0.00887881)
(-1.64806 7.40927 -0.00887881)
(-1.62262 6.56079 -0.00887881)
(-1.65744 8.83218 -0.00887881)
(-1.65744 9.42218 -0.00887881)
(-1.64806 7.99927 -0.00887881)
(-1.59807 7.40927 -0.00887881)
(-1.62262 5.97079 -0.00887881)
(-1.61342 5.12839 -0.00887881)
(-8.63244 11.8632 -0.00887881)
(-6.22112 11.8622 -0.00887881)
(-8.63244 9.96319 -0.00887881)
(-0.0324379 11.8632 -0.00887881)
(-7.93344 9.96319 -0.00887881)
(-7.03673 9.40728 -0.00887881)
(-7.93344 0.113189 -0.00887881)
(-6.98673 9.40728 -0.00887881)
(-6.22112 10.1722 -0.00887881)
(-2.92112 11.8622 -0.00887881)
(-1.60744 9.42218 -0.00887881)
(-1.60744 8.83218 -0.00887881)
(-1.59807 7.99927 -0.00887881)
(-7.00075 3.20398 -0.00887881)
(-0.0324379 0.113189 -0.00887881)
(-7.03673 8.81728 -0.00887881)
(-7.00075 3.79398 -0.00887881)
(-5.12575 3.20398 -0.00887881)
(-5.07575 3.20398 -0.00887881)
(-3.54214 3.19057 -0.00887881)
(-5.05384 4.53313 -0.00887881)
(-5.0401 5.91698 -0.00887881)
(-3.58842 4.53839 -0.00887881)
(-3.59762 5.97079 -0.00887881)
(-3.59762 6.56079 -0.00887881)
(-3.58842 5.12839 -0.00887881)
(-3.54214 3.78057 -0.00887881)
(-1.66714 3.19057 -0.00887881)
(-3.53842 4.53839 -0.00887881)
(-3.52307 7.40927 -0.00887881)
(-2.92112 10.1722 -0.00887881)
(-1.67262 5.97079 -0.00887881)
(-3.57307 7.40927 -0.00887881)
(-3.54762 6.56079 -0.00887881)
(-3.58244 8.83218 -0.00887881)
(-3.58244 9.42218 -0.00887881)
(-3.57307 7.99927 -0.00887881)
(-3.54762 5.97079 -0.00887881)
(-3.53842 5.12839 -0.00887881)
(-5.11172 9.40728 -0.00887881)
(-5.06173 9.40728 -0.00887881)
(-5.06173 8.81728 -0.00887881)
(-5.04475 7.99385 -0.00887881)
(-5.04475 7.40385 -0.00887881)
(-5.0401 6.50698 -0.00887881)
(-3.53244 9.42218 -0.00887881)
(-3.53244 8.83218 -0.00887881)
(-3.52307 7.99927 -0.00887881)
(-6.98673 8.81728 -0.00887881)
(-6.97884 4.53313 -0.00887881)
(-5.12575 3.79398 -0.00887881)
(-6.97884 5.12313 -0.00887881)
(-5.10384 4.53313 -0.00887881)
(-5.07575 3.79398 -0.00887881)
(-6.9651 5.91698 -0.00887881)
(-5.10384 5.12313 -0.00887881)
(-6.96975 7.40385 -0.00887881)
(-6.96975 7.99385 -0.00887881)
(-6.9651 6.50698 -0.00887881)
(-5.0901 5.91698 -0.00887881)
(-5.05384 5.12313 -0.00887881)
(-5.09475 7.40385 -0.00887881)
(-5.0901 6.50698 -0.00887881)
(-5.11172 8.81728 -0.00887881)
(-5.09475 7.99385 -0.00887881)
(-5.52453 10.9609 0.141121)
(-5.47453 10.9609 0.141121)
(-3.59953 10.9609 0.141121)
(-5.52453 10.3709 0.141121)
(-5.47453 10.3709 0.141121)
(-3.59953 10.3709 0.141121)
(-7.93344 0.113189 0.891121)
(-8.63244 0.113189 0.891121)
(-8.75944 11.8632 -0.00887881)
(-8.63244 0.113189 -0.00887881)
(-8.63244 1.36319 1.29112)
(-8.63244 1.31319 2.79112)
(-8.63244 1.31319 1.29112)
(-8.63244 1.36319 2.79112)
(-8.63244 9.96319 0.891121)
(-8.63244 10.6632 1.29112)
(-8.63244 10.7132 1.29112)
(-8.63244 10.6632 2.79112)
(-8.63244 11.5632 1.29112)
(-8.63244 11.5632 2.79112)
(-8.63244 0.463189 2.79112)
(-8.63244 0.463189 1.29112)
(-8.63244 2.18819 2.79112)
(-8.63244 2.23819 2.79112)
(-8.63244 2.18819 1.29112)
(-8.63244 3.06319 2.79112)
(-8.63244 3.11319 2.79112)
(-8.63244 3.11319 1.29112)
(-8.63244 3.96319 2.79112)
(-8.63244 4.26319 2.79112)
(-8.63244 4.26319 1.29112)
(-8.63244 5.10069 2.79112)
(-8.63244 5.15069 2.79112)
(-8.63244 5.15069 1.29112)
(-8.63244 5.98819 2.79112)
(-8.63244 6.03819 2.79112)
(-8.63244 6.03819 1.29112)
(-8.63244 6.87569 2.79112)
(-8.63244 6.92569 2.79112)
(-8.63244 6.92569 1.29112)
(-8.63244 7.76319 2.79112)
(-8.63244 8.06319 2.79112)
(-8.63244 8.06319 1.29112)
(-8.63244 8.91319 2.79112)
(-8.63244 8.96319 2.79112)
(-8.63244 8.96319 1.29112)
(-8.63244 9.78819 2.79112)
(-8.63244 9.83819 2.79112)
(-8.63244 9.83819 1.29112)
(-8.63244 10.7132 2.79112)
(-8.63244 2.23819 1.29112)
(-8.63244 3.06319 1.29112)
(-8.63244 3.96319 1.29112)
(-8.63244 5.10069 1.29112)
(-8.63244 5.98819 1.29112)
(-8.63244 6.87569 1.29112)
(-8.63244 7.76319 1.29112)
(-8.63244 8.91319 1.29112)
(-8.63244 9.78819 1.29112)
(-8.75944 11.5632 1.29112)
(-8.75944 10.7132 1.29112)
(-8.75944 10.7132 2.79112)
(-8.75944 10.6632 1.29112)
(-8.75944 10.6632 2.79112)
(-8.75944 1.31319 1.29112)
(-8.75944 0.463189 1.29112)
(-8.75944 2.18819 1.29112)
(-8.75944 1.36319 1.29112)
(-8.75944 3.06319 1.29112)
(-8.75944 2.23819 1.29112)
(-8.75944 4.26319 1.29112)
(-8.75944 5.10069 1.29112)
(-8.75944 5.98819 1.29112)
(-8.75944 5.15069 1.29112)
(-8.75944 6.87569 1.29112)
(-8.75944 6.03819 1.29112)
(-8.75944 7.76319 1.29112)
(-8.75944 6.92569 1.29112)
(-8.75944 8.91319 1.29112)
(-8.75944 8.06319 1.29112)
(-8.75944 9.78819 1.29112)
(-8.75944 8.96319 1.29112)
(-8.75944 9.83819 1.29112)
(-8.75944 11.5632 2.79112)
(-8.75944 9.83819 2.79112)
(-8.75944 9.78819 2.79112)
(-8.75944 8.96319 2.79112)
(-8.75944 8.91319 2.79112)
(-8.75944 8.06319 2.79112)
(-8.75944 7.76319 2.79112)
(-8.75944 6.92569 2.79112)
(-8.75944 6.87569 2.79112)
(-8.75944 6.03819 2.79112)
(-8.75944 5.98819 2.79112)
(-8.75944 5.15069 2.79112)
(-8.75944 5.10069 2.79112)
(-8.75944 4.26319 2.79112)
(-8.75944 3.11319 2.79112)
(-8.75944 3.11319 1.29112)
(-8.75944 3.96319 2.79112)
(-8.75944 3.06319 2.79112)
(-8.75944 2.23819 2.79112)